17
 -401.45544846 -401.34343400  0.00 0.00
C     -0.615386      0.109598     0.563294
C      1.637757     -0.567011     0.230963
C      1.527909      0.884978    -0.226666
C      0.029974      1.015968    -0.518604
H     -1.052094      0.726058     1.358836
H      2.555404     -0.775048     0.788288
H      1.610141     -1.236813    -0.643512
H      1.818634      1.553527     0.590323
H      2.150191      1.111697    -1.095365
H     -0.341740      2.040216    -0.470062
H     -0.189929      0.629378    -1.519854
N      0.461268     -0.720774     1.094263
H      0.161137     -1.686032     1.159569
C     -1.750274     -0.713256    -0.014036
O     -1.763984     -1.912719    -0.119708
O     -2.780008      0.064632    -0.408690
H     -3.458999     -0.524399    -0.769040
17
 -401.45468584 -401.34332100  0.48 0.07
C     -0.513656      0.017315     0.823399
C      1.573292     -0.768892    -0.045877
C      1.177961      0.521668    -0.782861
C      0.241208      1.212174     0.213005
H     -0.947496      0.272995     1.797160
H      2.528633     -0.638742     0.475513
H      1.682012     -1.613313    -0.732578
H      2.041656      1.135053    -1.048613
H      0.636862      0.284802    -1.704771
H      0.815401      1.702540     1.005788
H     -0.421152      1.953404    -0.237821
N      0.502638     -1.014651     0.944704
H      0.098089     -1.933521     0.824801
C     -1.668166     -0.401006    -0.077496
O     -1.721167     -1.411832    -0.730089
O     -2.669306      0.506005    -0.063686
H     -3.356807      0.176000    -0.660576
17
 -401.45248770 -401.34152600  1.86 1.20
C     -0.647000     -0.568542    -0.498499
C      1.295610      0.803065    -0.507473
C      1.404511     -0.198486     0.666080
C      0.410918     -1.315711     0.310253
H     -1.237148     -1.236866    -1.138525
H      2.199111      0.801828    -1.125449
H      1.151573      1.825925    -0.137052
H      2.422154     -0.573373     0.793288
H      1.108669      0.276636     1.605791
H      0.880739     -2.061237    -0.337664
H     -0.007129     -1.814623     1.184503
N      0.151046      0.337317    -1.313946
H     -0.393313      1.096602    -1.699207
C     -1.656731      0.122913     0.417809
O     -1.937701     -0.206735     1.540384
O     -2.259652      1.167325    -0.198156
H     -2.885658      1.543961     0.437866
17
 -401.45244284 -401.34147500  1.89 1.23
C     -0.489865      0.299296    -0.680277
C      1.269840      0.435496     0.888646
C      1.675691     -0.653715    -0.101600
C      0.346670     -0.999297    -0.793213
H     -0.690924      0.727031    -1.671697
H      2.109473      1.052240     1.220256
H      0.803965     -0.015771     1.781240
H      2.389029     -0.241075    -0.821533
H      2.136564     -1.519391     0.379719
H      0.481322     -1.301457    -1.833017
H     -0.163655     -1.818769    -0.281998
N      0.331448      1.230065     0.095327
H     -0.232011      1.860519     0.649913
C     -1.872813      0.024542    -0.099196
O     -2.518693     -0.975040    -0.271947
O     -2.347572      1.074182     0.613044
H     -3.228471      0.821144     0.926332
17
 -401.45241593 -401.34074900  1.90 1.68
C      0.218924     -0.744225     0.225707
C      0.234122      0.912211    -1.483508
C      0.362114      1.644553    -0.150456
C      0.862549      0.536590     0.786999
H      0.955784     -1.553788     0.135699
H      1.228322      0.797709    -1.947664
H     -0.417129      1.422962    -2.198505
H      1.036853      2.502081    -0.196292
H     -0.622931      1.994774     0.172396
H      1.952130      0.453425     0.732832
H      0.581702      0.701029     1.827500
N     -0.352644     -0.364632    -1.076440
H     -0.267944     -1.099052    -1.764500
C     -0.912680     -1.277004     1.091347
O     -1.367687     -0.763411     2.078693
O     -1.380303     -2.444053     0.596771
H     -2.111182     -2.719171     1.169421
17
 -401.45058564 -401.33969700  3.05 2.35
C     -0.304039      0.326409    -0.658817
C      1.265553      0.476561     1.144456
C      1.502648     -0.830500     0.368546
C      0.146690     -1.093691    -0.291834
H      0.183289      0.636249    -1.594417
H      2.147994      1.124890     1.127740
H      1.029358      0.269832     2.194582
H      2.268480     -0.685721    -0.400897
H      1.826407     -1.648937     1.014941
H      0.201530     -1.751121    -1.161674
H     -0.553460     -1.524974     0.430133
N      0.105575      1.115906     0.495342
H      0.270202      2.082065     0.255293
C     -1.794293      0.418158    -0.932516
O     -2.269101      0.649370    -2.015674
O     -2.552273      0.186793     0.156083
H     -3.474557      0.248710    -0.131289
17
 -401.45159947 -401.33946000  2.42 2.49
C     -0.498962     -0.639636    -0.456353
C      1.681589      0.316901    -0.352549
C      1.102948      0.387834     1.057943
C     -0.007068     -0.670634     1.010338
H     -0.577960     -1.651017    -0.869377
H      2.350961     -0.555223    -0.442088
H      2.248074      1.209233    -0.633269
H      1.845052      0.190069     1.834574
H      0.672577      1.378365     1.229144
H      0.398440     -1.662298     1.231535
H     -0.809219     -0.473220     1.723734
N      0.476107      0.194409    -1.172136
H      0.649165     -0.144157    -2.108303
C     -1.872763     -0.018235    -0.633056
O     -2.752835     -0.475249    -1.315913
O     -2.010218      1.138473     0.047682
H     -2.895889      1.474386    -0.151906
