24
 -518.26747651 -518.09898200  0.00 0.00
C      0.933934      0.315799    -0.612232
C     -0.630438     -1.430149    -0.092265
C     -0.084430     -1.660922    -1.515217
C      1.224693     -0.861824    -1.559185
H      1.848864      0.758573    -0.211205
H     -0.484054     -2.311645     0.541423
H     -1.701781     -1.204233    -0.119222
H      0.070908     -2.719981    -1.729650
H     -0.791120     -1.269770    -2.251018
H      2.053137     -1.442848    -1.143418
H      1.503522     -0.540908    -2.565224
N      0.143807     -0.297933     0.426174
C      0.163709      1.394807    -1.367690
O     -1.028409      1.434532    -1.511523
O      0.998618      2.305760    -1.916134
C     -0.246491      0.418658     1.548939
C     -1.144543     -0.324664     2.504122
H     -2.123464     -0.525029     2.057830
H     -0.702351     -1.286031     2.784455
H     -1.299093      0.264499     3.408453
C      0.169159      1.665788     1.820590
H      0.811673      2.235846     1.161025
H     -0.133467      2.144603     2.743099
H      0.447619      2.937070    -2.402125
24
 -518.26634604 -518.09845200  0.71 0.33
C      0.843357     -0.764028     0.403206
C     -0.372007      0.039144    -1.526090
C      1.072158     -0.240024    -1.947697
C      1.550963     -1.235716    -0.887613
H      0.578443     -1.611510     1.042546
H     -1.051595     -0.712738    -1.955891
H     -0.713047      1.025046    -1.853434
H      1.138373     -0.636984    -2.962571
H      1.658349      0.681087    -1.897729
H      1.207324     -2.246062    -1.127892
H      2.637290     -1.268865    -0.778803
N     -0.324803     -0.053673    -0.071708
C      1.776608      0.105653     1.236857
O      2.372322     -0.280396     2.209005
O      1.911025      1.354560     0.748745
C     -1.389726      0.234323     0.765098
C     -2.581498      0.874671     0.099310
H     -3.371268      1.043625     0.831631
H     -2.312293      1.838507    -0.344417
H     -2.980283      0.238433    -0.697192
C     -1.384217     -0.007498     2.086666
H     -0.551002     -0.464051     2.606021
H     -2.241901      0.271097     2.685441
H      2.527428      1.815399     1.336512
24
 -518.26613968 -518.09805300  0.84 0.58
C      0.985639     -0.497392     0.201915
C     -0.059612      1.266774    -1.066010
C      1.395514      1.668855    -0.763117
C      2.095497      0.338120    -0.463258
H      1.178398     -1.567111     0.088024
H     -0.259357      1.242948    -2.144228
H     -0.771856      1.962049    -0.608129
H      1.856663      2.203687    -1.595388
H      1.429447      2.322670     0.112380
H      2.392192     -0.160144    -1.390912
H      2.979692      0.438613     0.169288
N     -0.202629     -0.072667    -0.503720
C      0.978446     -0.237560     1.706797
O      1.687978     -0.816217     2.488353
O      0.119633      0.731223     2.082376
C     -1.447383     -0.664344    -0.353989
C     -1.462607     -2.004745     0.338042
H     -1.088208     -1.935707     1.364708
H     -2.481639     -2.390024     0.377154
H     -0.841163     -2.729816    -0.197114
C     -2.578544     -0.117919    -0.826995
H     -2.601000      0.835324    -1.339545
H     -3.518934     -0.642948    -0.718148
H      0.213834      0.826330     3.041515
24
 -518.26619351 -518.09761600  0.81 0.86
C     -0.027129     -0.018930    -1.150222
C     -1.337455     -0.165167     0.827735
C     -2.295774     -0.445697    -0.328633
C     -1.526800      0.042501    -1.566241
H      0.539917     -0.711800    -1.776907
H     -1.530168     -0.807045     1.688463
H     -1.402966      0.883769     1.153186
H     -2.481007     -1.521813    -0.395201
H     -3.257317      0.058074    -0.210343
H     -1.716381     -0.573626    -2.446252
H     -1.809511      1.068745    -1.816937
N     -0.040634     -0.459350     0.228849
C      0.577485      1.373609    -1.302514
O      0.460088      2.271543    -0.513424
O      1.223276      1.512287    -2.480986
C      1.142083     -0.526215     0.956060
C      0.982967     -0.706052     2.443403
H      0.456906      0.142279     2.892342
H      0.411548     -1.612504     2.667860
H      1.962202     -0.791547     2.915206
C      2.359928     -0.484789     0.393352
H      2.520807     -0.374171    -0.671721
H      3.242255     -0.579043     1.013211
H      1.545682      2.424938    -2.520288
24
 -518.26548472 -518.09720500  1.25 1.12
C     -0.160876      0.768903     0.789290
C     -0.104508     -1.611009     0.494156
C     -0.443958     -1.351665     1.960687
C      0.036171      0.087915     2.172085
H     -1.002661      1.467359     0.812722
H     -0.717374     -2.398247     0.048966
H      0.954042     -1.887928     0.371741
H     -1.526245     -1.421339     2.105444
H      0.038190     -2.057622     2.639856
H     -0.508618      0.617674     2.954378
H      1.095592      0.093342     2.446914
N     -0.401903     -0.332310    -0.128622
C      1.070859      1.610690     0.485650
O      1.150425      2.795226     0.681963
O      2.101326      0.876633     0.018496
C     -0.423509     -0.175695    -1.509503
C     -0.855602      1.182617    -2.004793
H     -0.969781      1.164093    -3.089126
H     -1.812313      1.470553    -1.557623
H     -0.126647      1.961995    -1.762034
C     -0.149683     -1.173434    -2.362670
H      0.173244     -2.152781    -2.032584
H     -0.259931     -1.020314    -3.428938
H      2.843762      1.485343    -0.106455
24
 -518.26596024 -518.09693500  0.95 1.28
C      0.698159      0.595247    -0.627039
C     -0.487349     -1.498540    -0.469321
C     -0.156543     -1.236489    -1.937369
C      1.051011     -0.302710    -1.831938
H      1.599828      0.874266    -0.076378
H      0.170655     -2.279528    -0.060508
H     -1.522791     -1.810269    -0.303194
H      0.058231     -2.156378    -2.483883
H     -0.991751     -0.732087    -2.434714
H      1.953092     -0.877292    -1.600942
H      1.242520      0.285505    -2.730210
N     -0.224740     -0.210876     0.179605
C      0.067666      1.906561    -1.117994
O      0.707053      2.752963    -1.677117
O     -1.252648      2.033158    -0.906166
C     -0.234686     -0.128822     1.581231
C      0.207553      1.188125     2.169316
H     -0.015659      1.208981     3.236163
H      1.285212      1.336380     2.049903
H     -0.297871      2.034299     1.694486
C     -0.653840     -1.132053     2.360667
H     -0.971749     -2.089748     1.969142
H     -0.695626     -0.999509     3.434533
H     -1.535726      1.238817    -0.418273
24
 -518.26407612 -518.09484300  2.13 2.60
C     -0.788350     -0.411596     0.661306
C      0.460705     -0.944091    -1.341359
C     -0.651360     -1.980933    -1.147619
C     -0.939550     -1.912114     0.350801
H     -1.741384      0.104294     0.493313
H      0.388174     -0.445496    -2.311641
H      1.456041     -1.402390    -1.274695
H     -1.539990     -1.686267    -1.715200
H     -0.354388     -2.977364    -1.480376
H     -1.926247     -2.280689     0.632491
H     -0.192627     -2.484763     0.912324
N      0.260176      0.021751    -0.253782
C     -0.432263     -0.232856     2.135907
O     -1.258031     -0.144142     2.999872
O      0.885962     -0.244849     2.410925
C      0.592940      1.370350    -0.437094
C     -0.056205      2.363570     0.494506
H      0.227001      3.374842     0.202159
H     -1.146922      2.289839     0.465190
H      0.258547      2.214549     1.531416
C      1.464142      1.766939    -1.373649
H      1.968618      1.073078    -2.034425
H      1.698243      2.817823    -1.486863
H      1.366768     -0.249483     1.566490
24
 -518.25967984 -518.09112500  4.89 4.93
C     -0.735808      0.331552    -0.799517
C      0.475659     -1.462001     0.228649
C     -0.714687     -2.054525    -0.550875
C     -1.106332     -0.959314    -1.552425
H     -0.552546      1.170059    -1.482356
H      1.422463     -1.923760    -0.070351
H      0.346546     -1.610719     1.305913
H     -0.456413     -2.990982    -1.048692
H     -1.542754     -2.254635     0.132813
H     -0.499665     -1.021777    -2.460780
H     -2.160083     -1.001607    -1.839374
N      0.477281     -0.036258    -0.117626
C     -1.871558      0.697148     0.167311
O     -1.956699      0.292595     1.289003
O     -2.843982      1.487299    -0.352900
C      1.208508      0.897732     0.605352
C      2.414084      0.347193     1.322469
H      3.056270     -0.208753     0.631926
H      2.993712      1.160577     1.759716
H      2.122557     -0.333101     2.128560
C      0.923798      2.208323     0.638554
H      0.060654      2.643949     0.150690
H      1.573489      2.887193     1.175929
H     -2.634496      1.733810    -1.261991
