24
 -518.28687398 -518.11489000  0.00 0.00
C     -0.762098      0.700123    -0.844056
C     -0.922658     -0.888387     0.873042
C     -2.337637     -0.701125     0.334839
C     -2.239141      0.639892    -0.410526
H     -0.653459      0.730719    -1.933671
H     -0.699590     -1.916678     1.166314
H     -0.778358     -0.237018     1.750154
H     -2.577671     -1.511521    -0.360144
H     -3.090366     -0.694274     1.126075
H     -2.914321      0.696219    -1.265390
H     -2.472097      1.480665     0.248140
N     -0.091661     -0.477532    -0.268246
C      0.014403      1.876380    -0.255270
O     -0.299360      3.031288    -0.232760
O      1.157439      1.404944     0.283565
C      1.268240     -0.032562     0.000167
C      2.134089     -0.186682    -1.246583
H      1.675617      0.306225    -2.107220
H      3.116970      0.258500    -1.073751
H      2.250475     -1.247583    -1.480874
C      1.923872     -0.685953     1.204209
H      2.944437     -0.310075     1.305923
H      1.387258     -0.466958     2.127914
H      1.965621     -1.768607     1.058152
24
 -518.28474762 -518.11263400  1.33 1.42
C     -0.921187     -0.527441    -0.904508
C     -0.710457     -0.264472     1.453793
C     -2.002997      0.422549     0.996917
C     -2.315214     -0.318764    -0.306072
H     -0.880545     -1.390159    -1.579975
H     -0.949919     -1.181386     2.005510
H     -0.107614      0.357203     2.114491
H     -2.800395      0.348377     1.739573
H     -1.823473      1.484447     0.794515
H     -2.778244     -1.288279    -0.096734
H     -2.963605      0.231776    -0.989808
N      0.015116     -0.640818     0.223853
C     -0.435311      0.704409    -1.662660
O     -1.003847      1.302003    -2.531334
O      0.769307      1.061335    -1.183026
C      1.215394      0.068498    -0.197391
C      2.156416     -0.889248    -0.923759
H      1.629403     -1.412969    -1.725325
H      2.993916     -0.336339    -1.356636
H      2.534464     -1.633664    -0.218742
C      1.948926      0.833272     0.890744
H      1.335698      1.640299     1.294606
H      2.241068      0.154357     1.696176
H      2.853100      1.275013     0.465795
