40
 -1068.72326827 -1068.44979600  0.00 0.00
C     -0.879767      2.487185     1.638852
C      0.308107      0.778760     2.811597
C     -0.166228      1.791992     3.846156
C     -1.327563      2.471785     3.119724
H     -1.713557      2.222550     0.982291
H     -0.355049     -0.100125     2.809124
H      1.330386      0.442487     3.001239
H     -0.466790      1.322179     4.785025
H      0.628630      2.513073     4.054332
H     -2.239384      1.874532     3.210111
H     -1.548984      3.472864     3.497144
N      0.224186      1.519820     1.548541
C     -0.440062      3.881489     1.224378
O     -1.024644      4.581086     0.437355
O      0.672025      4.289926     1.867752
C      0.285965      0.767479     0.333376
C      0.288527      1.661858    -0.896708
H     -0.636066      2.235446    -0.980856
H      1.132114      2.357036    -0.851335
H      0.381991      1.044797    -1.793218
C      1.337214     -0.360532     0.291269
H      1.932992     -0.492268     1.192487
H      1.997947     -0.314347    -0.574619
H      0.861431      5.186480     1.555098
C     -0.011659     -3.565356    -3.483973
C      0.935661     -3.887294    -2.524418
C      0.965084     -3.146475    -1.354631
C      0.063679     -2.101275    -1.148006
C     -0.876862     -1.802860    -2.129110
C     -0.920255     -2.536306    -3.307001
H      1.626366     -4.701422    -2.702799
H      1.699497     -3.382899    -0.590509
H     -1.577074     -0.994462    -1.959243
H     -1.644768     -2.321682    -4.082104
N     -0.053447     -4.349263    -4.737515
O     -0.911632     -4.069216    -5.548236
O      0.773692     -5.225912    -4.879794
C      0.137937     -1.316606     0.138879
O     -0.795421     -0.231402     0.214695
H      0.005782     -2.003125     0.984649
40
 -1068.72176098 -1068.44891300  0.95 0.55
C     -1.227332      3.038428     0.340545
C     -2.384970      1.207442     1.307647
C     -3.378694      2.367394     1.310517
C     -2.491577      3.598863     1.062754
H     -1.116425      3.481383    -0.653102
H     -2.843799      0.250598     1.054814
H     -1.894920      1.117384     2.290617
H     -4.091113      2.240697     0.490464
H     -3.941532      2.442516     2.243297
H     -2.986230      4.357936     0.454936
H     -2.211418      4.070421     2.009342
N     -1.463832      1.612355     0.254663
C     -0.003236      3.438422     1.156235
O      0.457156      2.836240     2.090228
O      0.498638      4.621416     0.738032
C     -0.428524      0.711807    -0.167562
C      0.337431      1.265618    -1.359083
H      0.943162      2.132832    -1.080077
H      1.010312      0.496600    -1.744967
H     -0.357755      1.554638    -2.152022
C      0.466787      0.010546     0.892980
H      0.249235      0.286379     1.922066
H      1.538941      0.095028     0.710363
H      1.239504      4.838931     1.323097
C      2.384410     -4.139029    -1.462430
C      2.503093     -3.905168    -0.101149
C      1.657951     -2.976737     0.483148
C      0.710850     -2.292199    -0.279948
C      0.614284     -2.550145    -1.644009
C      1.453550     -3.478319    -2.245191
H      3.243970     -4.445272     0.474354
H      1.735585     -2.779107     1.548025
H     -0.126054     -2.019291    -2.229513
H      1.394084     -3.693933    -3.304348
N      3.281065     -5.128526    -2.098169
O      3.136180     -5.339189    -3.284299
O      4.108351     -5.670677    -1.394865
C     -0.189872     -1.289028     0.397995
O     -1.033915     -0.562300    -0.510507
H     -0.793336     -1.804959     1.155125
40
 -1068.72249668 -1068.44890700  0.48 0.56
C      1.341190     -1.047401    -2.817469
C     -0.118238     -2.468261    -1.564163
C      0.140043     -3.129487    -2.934393
C      1.407940     -2.443026    -3.465221
H      2.328127     -0.580058    -2.775536
H      0.076129     -3.148396    -0.730471
H     -1.160324     -2.135828    -1.490107
H      0.267098     -4.210814    -2.853671
H     -0.702722     -2.942628    -3.604714
H      2.307594     -2.944885    -3.097610
H      1.458657     -2.406253    -4.555870
N      0.828333     -1.350795    -1.503559
C      0.438699     -0.158514    -3.667555
O     -0.753692     -0.039214    -3.555870
O      1.141504      0.468656    -4.636877
C      0.614893     -0.322255    -0.526693
C      1.791732      0.638814    -0.462609
H      1.666355      1.306590     0.392846
H      2.727286      0.085473    -0.343663
H      1.849734      1.254423    -1.365184
C     -0.771612      0.376833    -0.426471
H     -1.500383      0.051843    -1.165362
H     -0.726089      1.466935    -0.408475
H      0.507231      0.979060    -5.161931
C     -1.029454      2.302054     4.333311
C     -2.116798      2.234765     3.475979
C     -2.043216      1.384314     2.385555
C     -0.902006      0.614709     2.154723
C      0.172726      0.702589     3.034365
C      0.114916      1.549801     4.132630
H     -2.993199      2.839497     3.670965
H     -2.884113      1.317782     1.701801
H      1.053124      0.098806     2.852611
H      0.939504      1.632084     4.829132
N     -1.095858      3.206367     5.501715
O     -0.144564      3.224061     6.254704
O     -2.098459      3.876742     5.637195
C     -0.864006     -0.297281     0.953123
O      0.401910     -0.950490     0.763357
H     -1.669987     -1.036614     1.039462
40
 -1068.72296323 -1068.44846600  0.19 0.83
C      0.208545     -2.909326     1.173556
C      0.617820     -1.134171     2.729717
C      1.659308     -2.237586     2.935528
C      0.941890     -3.473893     2.403146
H      0.904249     -2.887637     0.322693
H      1.096339     -0.171973     2.536633
H     -0.016374     -1.026364     3.618255
H      2.548448     -2.031205     2.330574
H      1.968042     -2.334535     3.978463
H      1.604363     -4.300553     2.141838
H      0.207430     -3.832995     3.132414
N     -0.200903     -1.570897     1.580118
C     -0.949640     -3.828732     0.820091
O     -2.075522     -3.761079     1.229427
O     -0.531120     -4.820573    -0.003116
C     -0.409423     -0.614684     0.541944
C     -1.231251     -1.162677    -0.612678
H     -1.395204     -0.371020    -1.346720
H     -0.709501     -1.976786    -1.122113
H     -2.196331     -1.523817    -0.249436
C     -0.849807      0.789948     1.002186
H     -0.899627      0.925693     2.081986
H     -1.777115      1.141151     0.548928
H     -1.292788     -5.399587    -0.153277
C     -0.048681      3.879378    -3.023884
C      0.456143      2.608363    -3.237000
C      0.616943      1.763006    -2.147615
C      0.275614      2.190016    -0.868084
C     -0.228672      3.478248    -0.684948
C     -0.395667      4.333922    -1.761078
H      0.716364      2.296059    -4.240245
H      1.011889      0.763512    -2.280996
H     -0.494273      3.815940     0.312322
H     -0.785254      5.336406    -1.638858
N     -0.222094      4.783920    -4.181187
O     -0.694967      5.881627    -3.970462
O      0.118601      4.374725    -5.271481
C      0.444440      1.292461     0.334402
O      0.851524     -0.044231     0.012594
H      1.156265      1.759949     1.026361
40
 -1068.72211986 -1068.44842800  0.72 0.86
C     -2.480036     -0.945943     0.914587
C     -3.103192     -0.797285    -1.383307
C     -4.375999     -0.747959    -0.516953
C     -3.946683     -1.381474     0.809235
H     -2.432355      0.089346     1.284783
H     -2.948159      0.158161    -1.903658
H     -3.165063     -1.580411    -2.147160
H     -4.682076      0.290272    -0.354548
H     -5.214402     -1.270815    -0.981477
H     -4.539376     -1.047831     1.662987
H     -3.999112     -2.472466     0.752081
N     -2.006048     -1.094025    -0.450897
C     -1.710539     -1.776230     1.927913
O     -1.348338     -1.355262     2.997538
O     -1.533107     -3.053048     1.547672
C     -0.721014     -0.519244    -0.769975
C     -0.223130     -1.013660    -2.117040
H     -0.210920     -2.106285    -2.124579
H     -0.866653     -0.660964    -2.927800
H      0.789359     -0.642596    -2.293962
C     -0.513061      0.998595    -0.508368
H     -1.397517      1.540073    -0.170400
H     -0.037762      1.537935    -1.328813
H     -1.041586     -3.486978     2.259673
C      4.505633      1.796439     0.194096
C      4.190769      0.480810    -0.098955
C      2.873625      0.063656     0.036695
C      1.892978      0.955310     0.461131
C      2.242066      2.274873     0.751570
C      3.551372      2.707211     0.620117
H      4.969164     -0.196991    -0.425275
H      2.598613     -0.961190    -0.179268
H      1.479280      2.972601     1.083913
H      3.841345      3.726553     0.840534
N      5.907509      2.245624     0.050214
O      6.150694      3.411438     0.283793
O      6.729981      1.422085    -0.292585
C      0.452039      0.535930     0.601413
O      0.217752     -0.847698     0.277000
H      0.103948      0.751440     1.618072
40
 -1068.72260435 -1068.44809500  0.42 1.07
C      1.608710     -0.248648    -2.711288
C     -0.755222     -0.628761    -2.841762
C     -0.024801     -1.682017    -3.679192
C      1.284060     -0.978251    -4.024783
H      2.114103     -0.944190    -2.028280
H     -1.404903     -1.095121    -2.098675
H     -1.374128      0.014986    -3.479047
H      0.176338     -2.570221    -3.071287
H     -0.595812     -1.989051    -4.557978
H      2.089680     -1.650635    -4.324782
H      1.123955     -0.249193    -4.826332
N      0.306301      0.174999    -2.201235
C      2.591563      0.877821    -2.975595
O      3.780237      0.784890    -2.803157
O      2.016024      1.984261    -3.483123
C      0.198420      0.370324    -0.791058
C      1.356427      1.171088    -0.217453
H      1.186850      1.338660     0.848295
H      2.303353      0.637020    -0.320423
H      1.430967      2.138947    -0.720742
C     -1.184343      0.827565    -0.282130
H     -1.957225      0.893158    -1.047195
H     -1.168268      1.750820     0.297668
H      2.731995      2.611834    -3.659699
C     -1.127847     -0.007273     4.786132
C     -2.262958      0.357477     4.078864
C     -2.260098      0.199084     2.703012
C     -1.141411     -0.314290     2.045366
C     -0.017439     -0.673459     2.782777
C     -0.004160     -0.521416     4.162630
H     -3.120917      0.753834     4.606595
H     -3.139898      0.478544     2.131173
H      0.845047     -1.075577     2.265879
H      0.859472     -0.795533     4.754873
N     -1.118724      0.156848     6.255989
O     -0.125871     -0.198840     6.855973
O     -2.105462      0.637674     6.773808
C     -1.184092     -0.472659     0.544424
O      0.059382     -0.893039    -0.033972
H     -1.989303     -1.171660     0.285727
40
 -1068.72127649 -1068.44749500  1.25 1.44
C      0.050200     -2.303303    -1.644419
C     -0.008608     -3.482111     0.435097
C      0.658593     -4.373477    -0.627385
C      0.153676     -3.801632    -1.953565
H      1.043602     -1.837044    -1.726440
H      0.702943     -3.220378     1.230291
H     -0.857199     -3.988572     0.908665
H      1.747934     -4.280864    -0.569147
H      0.408774     -5.428756    -0.500830
H      0.814534     -4.010871    -2.796960
H     -0.844929     -4.180826    -2.187930
N     -0.477343     -2.292429    -0.290504
C     -0.886783     -1.607984    -2.625666
O     -2.049071     -1.859817    -2.781688
O     -0.228707     -0.693295    -3.377287
C     -0.430764     -1.043534     0.429640
C     -1.323019     -1.088634     1.657700
H     -0.957108     -1.822598     2.381107
H     -1.339403     -0.107678     2.139064
H     -2.339106     -1.360118     1.361749
C      0.957167     -0.380196     0.653207
H      1.810414     -0.956304     0.292119
H      1.141884     -0.041525     1.673566
H     -0.886302     -0.304595    -3.972779
C      0.162003      4.647378     1.308190
C     -1.005853      3.930432     1.112999
C     -0.922148      2.649489     0.584248
C      0.315009      2.102453     0.257273
C      1.474632      2.850991     0.463501
C      1.408371      4.129875     0.991289
H     -1.957963      4.375524     1.372133
H     -1.818958      2.066495     0.415392
H      2.441352      2.427005     0.208778
H      2.296456      4.725730     1.158571
N      0.077779      6.012170     1.871880
O     -1.026175      6.455126     2.111300
O      1.118491      6.607141     2.061121
C      0.437268      0.709094    -0.305070
O     -0.823664      0.030936    -0.452543
H      0.962023      0.746699    -1.266669
40
 -1068.72226341 -1068.44721600  0.63 1.62
C      0.718187      0.551692    -2.869804
C      0.278710     -1.794958    -2.796950
C      0.313817     -1.389542    -4.284163
C      0.907190      0.030614    -4.301913
H      1.479488      1.289791    -2.613103
H      0.867617     -2.696737    -2.610462
H     -0.751185     -1.987654    -2.471403
H      0.922915     -2.078098    -4.873846
H     -0.693610     -1.397901    -4.702793
H      1.980012     -0.001736    -4.509375
H      0.440631      0.678442    -5.047588
N      0.869573     -0.659017    -2.069882
C     -0.616122      1.276886    -2.702760
O     -0.730235      2.406397    -2.298505
O     -1.676145      0.539242    -3.089561
C      0.664461     -0.594705    -0.659488
C      0.899949     -1.944753    -0.000430
H      0.813561     -1.844304     1.083514
H      0.156815     -2.674220    -0.328984
H      1.899386     -2.314750    -0.247913
C      1.326825      0.584023     0.083275
H      1.796886      1.330890    -0.553863
H      2.020157      0.288489     0.871414
H     -2.464636      1.068550    -2.902177
C     -0.900509      0.612335     4.718529
C     -1.533074     -0.261803     3.851717
C     -1.272478     -0.158787     2.491969
C     -0.391397      0.806555     2.013924
C      0.229237      1.675058     2.913218
C     -0.019455      1.585316     4.272661
H     -2.215631     -1.005166     4.243435
H     -1.752900     -0.827436     1.788332
H      0.915683      2.431462     2.544740
H      0.452373      2.249976     4.985002
N     -1.174554      0.506716     6.168101
O     -0.584029      1.265698     6.908467
O     -1.973017     -0.331957     6.530497
C     -0.097805      0.949164     0.541229
O     -0.668240     -0.093647    -0.268860
H     -0.438450      1.929876     0.193798
40
 -1068.72206603 -1068.44690400  0.75 1.81
C     -2.138822      1.164332    -1.669440
C     -1.223748     -0.437288    -3.156881
C     -2.501489      0.116024    -3.822735
C     -2.875396      1.363918    -3.000898
H     -1.953513      2.108127    -1.154476
H     -0.393511     -0.508413    -3.863263
H     -1.411258     -1.434909    -2.741320
H     -2.332019      0.371307    -4.871048
H     -3.297279     -0.628459    -3.781373
H     -2.487664      2.272052    -3.470392
H     -3.953674      1.480321    -2.870318
N     -0.895601      0.538621    -2.102997
C     -2.985240      0.275038    -0.753832
O     -3.452245     -0.791386    -1.054955
O     -3.213018      0.849363     0.449604
C      0.076970      0.191269    -1.118992
C      1.234511     -0.591787    -1.715286
H      1.686597     -0.029210    -2.537600
H      1.989886     -0.768077    -0.946477
H      0.899444     -1.562373    -2.086672
C      0.516461      1.330590    -0.174797
H     -0.017018      2.270939    -0.305398
H      1.590259      1.520878    -0.167689
H     -3.750309      0.222709     0.957158
C      2.902012     -0.975914     3.748551
C      2.308099     -1.888369     2.893828
C      1.362273     -1.433752     1.984939
C      1.020888     -0.085489     1.938181
C      1.635679      0.809858     2.814867
C      2.581706      0.372708     3.726963
H      2.587017     -2.932984     2.947081
H      0.878402     -2.123228     1.304217
H      1.370844      1.862486     2.782799
H      3.069229      1.051903     4.414564
N      3.910406     -1.455155     4.718361
O      4.437615     -0.629725     5.435119
O      4.150417     -2.644391     4.739727
C     -0.006094      0.434989     0.963568
O     -0.473761     -0.551328     0.029307
H     -0.847058      0.864803     1.518005
40
 -1068.71944620 -1068.44675200  2.40 1.91
C     -1.381996     -2.576250    -0.270811
C     -3.130984     -0.967664    -0.357777
C     -3.770300     -2.335735    -0.018648
C     -2.593729     -3.227666     0.423917
H     -0.435239     -2.802997     0.220813
H     -3.498812     -0.171689     0.297884
H     -3.361127     -0.688063    -1.393573
H     -4.525323     -2.252178     0.765778
H     -4.256107     -2.750368    -0.904854
H     -2.440500     -3.162618     1.504438
H     -2.727538     -4.279401     0.160240
N     -1.701714     -1.175717    -0.135799
C     -1.321926     -3.107219    -1.699984
O     -1.933538     -2.679097    -2.645588
O     -0.528794     -4.197440    -1.787293
C     -0.757332     -0.154426    -0.533826
C     -0.663889      0.159242    -2.018746
H     -1.637917      0.452122    -2.418070
H      0.043338      0.979374    -2.169655
H     -0.314524     -0.709621    -2.576206
C     -0.822808      1.064633     0.411656
H     -1.678978      1.091205     1.084623
H     -0.698647      2.026038    -0.088169
H     -0.575324     -4.507624    -2.703943
C      3.812038      3.160219     1.078686
C      3.701317      2.269901     0.024003
C      2.626201      1.393008     0.001731
C      1.680074      1.410735     1.023497
C      1.821586      2.317426     2.074246
C      2.888526      3.200670     2.111138
H      4.449116      2.270685    -0.758661
H      2.518846      0.679150    -0.805256
H      1.087068      2.332617     2.873784
H      3.014786      3.910731     2.918332
N      4.955587      4.098052     1.106150
O      5.012046      4.888696     2.025136
O      5.768394      4.020973     0.208579
C      0.484093      0.496001     1.001991
O      0.547403     -0.514548    -0.019107
H      0.346627      0.038842     1.989344
40
 -1068.71885405 -1068.44661100  2.77 2.00
C      2.376515      1.470001    -1.515295
C      0.890400      0.311053    -2.996252
C      1.598783      1.388413    -3.810896
C      2.859728      1.638819    -2.976636
H      3.125858      0.950266    -0.908725
H      1.347256     -0.669571    -3.207288
H     -0.180050      0.234911    -3.196546
H      1.822118      1.066847    -4.830298
H      0.985411      2.291753    -3.856010
H      3.614944      0.876440    -3.190793
H      3.313954      2.616087    -3.156844
N      1.108763      0.747241    -1.617249
C      2.188464      2.823894    -0.846183
O      2.813790      3.213090     0.107139
O      1.247541      3.576971    -1.449428
C      0.788710     -0.205326    -0.571857
C      1.675977     -1.441402    -0.518894
H      1.334854     -2.099034     0.284760
H      1.617932     -1.992952    -1.460122
H      2.720056     -1.174351    -0.332792
C      0.474451      0.468812     0.779601
H      0.735246      1.521830     0.871147
H      0.843904     -0.085134     1.643546
H      1.205983      4.413421    -0.963783
C     -3.187124     -2.052340     3.344869
C     -3.062297     -0.679492     3.487751
C     -2.356945      0.020809     2.522573
C     -1.785596     -0.639799     1.434517
C     -1.930678     -2.019783     1.317677
C     -2.635190     -2.736022     2.274889
H     -3.512420     -0.184003     4.338373
H     -2.248173      1.097185     2.615575
H     -1.496674     -2.526689     0.465042
H     -2.761886     -3.808555     2.201368
N     -3.937519     -2.811632     4.368675
O     -4.061006     -4.007481     4.204534
O     -4.384702     -2.192624     5.311935
C     -0.995390      0.155805     0.429370
O     -0.593600     -0.602507    -0.724563
H     -1.561387      1.045048     0.127114
40
 -1068.71822601 -1068.44632200  3.16 2.18
C      1.159582     -2.937485     0.862013
C      2.786672     -1.221637     0.742445
C      3.473484     -2.494752     1.279815
C      2.317845     -3.387033     1.754861
H      1.247196     -3.406080    -0.130712
H      3.105387     -1.006301    -0.286312
H      3.014445     -0.336208     1.339646
H      4.035106     -2.988982     0.481802
H      4.174945     -2.275481     2.087138
H      2.530538     -4.453989     1.659439
H      2.056065     -3.175075     2.794030
N      1.343733     -1.494379     0.825821
C     -0.196441     -3.313085     1.444530
O     -0.539452     -3.153388     2.584951
O     -1.008602     -3.864700     0.513495
C      0.507615     -0.720343    -0.077695
C      0.474910     -1.219735    -1.515991
H     -0.069958     -0.503267    -2.135905
H      1.488607     -1.322894    -1.913820
H     -0.029875     -2.187213    -1.580023
C     -0.862282     -0.333962     0.523326
H     -1.089378     -0.792237     1.484798
H     -1.703111     -0.436660    -0.164087
H     -1.845141     -4.068597     0.957650
C     -2.390124      4.124851    -1.515913
C     -1.227223      3.621375    -2.073043
C     -0.528998      2.638488    -1.385309
C     -0.992740      2.171897    -0.158540
C     -2.166900      2.701758     0.378438
C     -2.876018      3.682304    -0.295454
H     -0.882583      3.999396    -3.027059
H      0.387960      2.231639    -1.792712
H     -2.530810      2.341381     1.335935
H     -3.788385      4.105083     0.105278
N     -3.138292      5.171552    -2.245477
O     -2.675513      5.565977    -3.295480
O     -4.170724      5.573176    -1.749805
C     -0.268920      1.088411     0.598487
O      0.947826      0.654138    -0.034239
H     -0.070443      1.422057     1.623678
40
 -1068.71835162 -1068.44631200  3.09 2.19
C      1.245842      2.017117     2.191336
C      0.827355      2.965420     0.044767
C      1.578925      3.995504     0.905171
C      1.293984      3.547444     2.339741
H      2.277185      1.632858     2.162228
H      1.424080      2.646768    -0.816981
H     -0.111171      3.366699    -0.347907
H      2.654413      3.946043     0.706087
H      1.251432      5.019022     0.713235
H      2.045346      3.873484     3.061217
H      0.312551      3.903312     2.668843
N      0.525126      1.837563     0.947014
C      0.560331      1.414623     3.406983
O     -0.622562      1.306712     3.585516
O      1.471297      1.057720     4.342065
C      0.555558      0.525787     0.319897
C      1.950703     -0.053376     0.117953
H      2.409018     -0.314262     1.076057
H      1.883670     -0.959905    -0.488758
H      2.597760      0.663604    -0.396239
C     -0.501927     -0.464045     0.855249
H     -1.057842     -0.110362     1.720555
H     -0.130490     -1.477726     1.014577
H      0.973329      0.732604     5.106558
C     -1.774113     -3.721584    -2.909259
C     -2.605117     -3.501525    -1.821773
C     -2.403550     -2.362736    -1.059666
C     -1.388451     -1.459252    -1.378045
C     -0.571778     -1.707021    -2.477709
C     -0.760855     -2.843179    -3.252420
H     -3.387178     -4.213193    -1.590086
H     -3.043482     -2.172325    -0.203339
H      0.207997     -0.998240    -2.726494
H     -0.137981     -3.053066    -4.112553
N     -1.978995     -4.934114    -3.731019
O     -1.259992     -5.088225    -4.696191
O     -2.854414     -5.702583    -3.390369
C     -1.192331     -0.245486    -0.506344
O     -0.130368      0.617923    -0.948332
H     -2.133305      0.311999    -0.431568
40
 -1068.71996658 -1068.44624700  2.07 2.23
C      0.673240     -2.739638     1.794065
C      2.312697     -1.020376     1.565472
C      3.045720     -2.227354     2.147443
C      1.906025     -3.123676     2.659183
H      0.337195     -3.581084     1.182536
H      2.890022     -0.495932     0.802997
H      2.052802     -0.305817     2.363096
H      3.602269     -2.733672     1.353765
H      3.748799     -1.956111     2.937809
H      2.131765     -4.186775     2.561494
H      1.709992     -2.926869     3.716388
N      1.146402     -1.646345     0.958588
C     -0.511865     -2.403276     2.692645
O     -1.542555     -3.022196     2.737542
O     -0.283913     -1.327298     3.481025
C      0.235980     -0.862996     0.170952
C     -0.762543     -1.742393    -0.566056
H     -1.352360     -1.124933    -1.247629
H     -0.229232     -2.498381    -1.148827
H     -1.449229     -2.241085     0.122946
C     -0.376332      0.434345     0.776691
H     -0.071841      0.642965     1.800782
H     -1.460057      0.517251     0.681871
H     -1.079770     -1.205237     4.018701
C     -1.816612      3.301915    -3.235493
C     -1.158336      2.146997    -3.621092
C     -0.423765      1.448892    -2.672260
C     -0.353690      1.906095    -1.359771
C     -1.026341      3.075539    -1.002078
C     -1.763928      3.783140    -1.936455
H     -1.224927      1.809255    -4.647382
H      0.105101      0.543956    -2.944451
H     -0.972751      3.436042     0.020825
H     -2.292495      4.691738    -1.677972
N     -2.600746      4.048769    -4.242541
O     -3.192447      5.041209    -3.871039
O     -2.605799      3.625062    -5.379562
C      0.434348      1.165057    -0.308022
O      1.001478     -0.071268    -0.771830
H      1.217701      1.824483     0.085642
40
 -1068.72011013 -1068.44588300  1.98 2.46
C     -0.355395     -0.908231     3.166780
C     -0.700114     -2.494621     1.406687
C     -0.739490     -3.281372     2.733674
C     -0.801923     -2.212368     3.842632
H     -0.824735     -0.033704     3.622268
H     -1.530008     -2.744796     0.742532
H      0.231259     -2.708463     0.865436
H     -1.605211     -3.945184     2.782175
H      0.155330     -3.897503     2.836280
H     -1.829533     -2.074015     4.188771
H     -0.189789     -2.465798     4.711061
N     -0.811375     -1.087298     1.796289
C      1.145875     -0.655550     3.274377
O      1.646865      0.405321     3.544398
O      1.892253     -1.751318     3.003353
C     -0.499287     -0.083864     0.811494
C     -0.925410      1.301630     1.269841
H     -0.307579      1.646657     2.102507
H     -0.808618      2.006464     0.443098
H     -1.974608      1.286667     1.576803
C      0.889937     -0.114827     0.110095
H      1.547473     -0.923106     0.428419
H      1.431562      0.831556     0.124170
H      2.818698     -1.480366     3.082568
C      0.253646      2.555006    -4.234383
C      1.385590      1.806245    -3.951766
C      1.309412      0.849709    -2.953228
C      0.122078      0.645890    -2.248555
C     -0.998257      1.411762    -2.556164
C     -0.938493      2.374371    -3.554756
H      2.297351      1.979137    -4.509033
H      2.185256      0.252890    -2.716903
H     -1.917619      1.245091    -2.008662
H     -1.798450      2.980114    -3.810320
N      0.322376      3.579486    -5.298914
O     -0.690251      4.198854    -5.550296
O      1.388088      3.739014    -5.857236
C      0.083763     -0.407486    -1.168578
O     -1.150203     -0.437954    -0.431741
H      0.289536     -1.388040    -1.615175
40
 -1068.71813629 -1068.44558700  3.22 2.64
C      1.110971     -0.414434    -2.979955
C      0.331251     -2.402995    -1.886144
C      0.949071     -2.774293    -3.239282
C      1.908052     -1.609531    -3.506266
H      1.742893      0.424174    -2.669245
H      0.936645     -2.806566    -1.065868
H     -0.682530     -2.789894    -1.757205
H      1.448722     -3.745010    -3.211046
H      0.186191     -2.809866    -4.021428
H      2.823581     -1.722349    -2.915863
H      2.178060     -1.501218    -4.557173
N      0.315015     -0.926850    -1.852451
C      0.168949      0.125071    -4.052587
O     -0.014978     -0.355558    -5.140424
O     -0.464585      1.245059    -3.646711
C      0.592581     -0.350040    -0.544289
C      2.028154     -0.496765    -0.054525
H      2.326738     -1.547636    -0.026918
H      2.726514      0.047205    -0.697426
H      2.106383     -0.092454     0.957902
C     -0.046935      1.038858    -0.344106
H     -0.449232      1.497153    -1.244931
H      0.580790      1.742031     0.205433
H     -1.057304      1.508283    -4.366046
C     -1.465917      1.687850     4.548861
C     -2.127988      2.350805     3.527477
C     -1.991163      1.871321     2.235025
C     -1.205646      0.749402     1.967625
C     -0.554851      0.103894     3.015576
C     -0.682294      0.570508     4.316379
H     -2.733150      3.219352     3.753587
H     -2.501893      2.376270     1.420609
H      0.044414     -0.773030     2.805365
H     -0.186640      0.081593     5.145302
N     -1.603614      2.189816     5.933214
O     -2.271608      3.188405     6.105158
O     -1.040704      1.573751     6.814069
C     -1.059309      0.283616     0.542695
O     -0.316859     -0.941560     0.407087
H     -2.047778      0.185631     0.078520
40
 -1068.71811835 -1068.44558300  3.23 2.64
C     -1.350264      2.770327    -0.887653
C      0.965276      2.904442    -0.272064
C      0.427000      4.314446    -0.541820
C     -1.077630      4.156164    -0.299653
H     -2.224726      2.278466    -0.448873
H      1.220577      2.789026     0.787993
H      1.865660      2.672334    -0.846087
H      0.890379      5.062554     0.104982
H      0.603963      4.609150    -1.579528
H     -1.294927      4.143141     0.773706
H     -1.677808      4.935147    -0.770833
N     -0.126242      1.986363    -0.654287
C     -1.608835      2.858607    -2.389119
O     -1.525752      3.850853    -3.064946
O     -1.958066      1.663582    -2.909187
C     -0.256614      0.814747     0.200886
C     -0.772628      1.085303     1.609008
H     -0.137070      1.808145     2.126509
H     -1.796279      1.470995     1.591437
H     -0.765857      0.153532     2.180279
C     -0.877469     -0.398555    -0.520588
H     -1.315034     -0.184371    -1.493225
H     -1.563690     -0.979622     0.097432
H     -2.078881      1.796467    -3.860918
C      1.138174     -4.779192     1.246646
C      1.462640     -3.653303     1.983988
C      1.287283     -2.403842     1.405943
C      0.795542     -2.289569     0.108418
C      0.480934     -3.443645    -0.610160
C      0.648882     -4.698402    -0.047619
H      1.845911     -3.763789     2.990328
H      1.540966     -1.506342     1.955891
H      0.099069     -3.358652    -1.623100
H      0.410369     -5.604293    -0.590015
N      1.321886     -6.112923     1.858862
O      1.001261     -7.081837     1.202084
O      1.781845     -6.158908     2.980747
C      0.565523     -0.945677    -0.531761
O      1.028384      0.161261     0.262696
H      1.026247     -0.922131    -1.526401
40
 -1068.71673666 -1068.44357500  4.10 3.90
C     -2.527004     -1.416326     0.701372
C     -2.515092     -1.204049    -1.685042
C     -3.966591     -1.525871    -1.260712
C     -3.999992     -1.309513     0.265940
H     -2.309037     -0.836860     1.599105
H     -2.474844     -0.364240    -2.386119
H     -2.059627     -2.072083    -2.180461
H     -4.687875     -0.880467    -1.766383
H     -4.213181     -2.558779    -1.513264
H     -4.348819     -0.301482     0.504104
H     -4.647876     -2.020986     0.783519
N     -1.843253     -0.842394    -0.440105
C     -2.182797     -2.860498     1.055685
O     -1.935839     -3.257703     2.164084
O     -2.214594     -3.694644    -0.011819
C     -0.407871     -0.666928    -0.422678
C      0.429548     -1.920594    -0.628743
H      0.157852     -2.428581    -1.557555
H      1.488261     -1.650800    -0.668424
H      0.288492     -2.610284     0.206175
C      0.021242      0.580162    -1.224561
H     -0.752726      1.030748    -1.844474
H      0.940712      0.450036    -1.796430
H     -2.005760     -4.578026     0.324713
C      4.111760      2.834121     0.896717
C      3.173934      3.604045     0.227166
C      1.915472      3.066474     0.010303
C      1.600817      1.781798     0.454107
C      2.564185      1.033601     1.125992
C      3.828931      1.557618     1.352522
H      3.436018      4.598840    -0.109546
H      1.166011      3.653598    -0.511843
H      2.311556      0.041855     1.479547
H      4.591230      0.994033     1.875049
N      5.458996      3.396394     1.134407
O      6.251884      2.716268     1.751674
O      5.690534      4.504683     0.697406
C      0.233484      1.222228     0.162398
O     -0.033396     -0.028221     0.820856
H     -0.534744      1.962828     0.415317
40
 -1068.71469104 -1068.44055400  5.38 5.80
C      1.444709      2.331324    -1.564036
C      0.716174      2.858098     0.656977
C      0.393194      4.031652    -0.271890
C      1.414459      3.860203    -1.391884
H      0.587604      2.024784    -2.189864
H     -0.183955      2.493572     1.156329
H      1.436663      3.157057     1.427858
H     -0.621123      3.926659    -0.671022
H      0.466018      4.997645     0.231639
H      1.153034      4.381989    -2.315300
H      2.402576      4.204024    -1.069342
N      1.311692      1.818621    -0.208245
C      2.748440      1.926000    -2.255757
O      3.776929      1.684280    -1.699597
O      2.688179      1.918489    -3.613802
C      0.802374      0.493667    -0.061476
C      1.455492     -0.503645    -1.002806
H      1.234240     -0.271947    -2.047814
H      2.537888     -0.506580    -0.857271
H      1.059302     -1.501199    -0.802222
C      0.674676     -0.016523     1.388051
H      0.934849      0.709834     2.157127
H      1.198185     -0.952975     1.581776
H      1.797917      2.133534    -3.916643
C     -2.418695     -4.111091     1.147320
C     -2.340299     -3.447989    -0.065046
C     -1.823269     -2.159798    -0.088751
C     -1.393629     -1.551550     1.086602
C     -1.487818     -2.244962     2.293978
C     -2.000642     -3.530827     2.334840
H     -2.680980     -3.938854    -0.967664
H     -1.751338     -1.613632    -1.021117
H     -1.155501     -1.772870     3.213663
H     -2.081601     -4.084528     3.261411
N     -2.968581     -5.483860     1.177953
O     -2.997260     -6.053840     2.249036
O     -3.357895     -5.957764     0.131033
C     -0.831064     -0.150321     1.089978
O     -0.669069      0.417400    -0.217259
H     -1.471875      0.485923     1.713241
40
 -1068.71036654 -1068.43431900  8.10 9.71
C     -1.905099      2.231946     1.254099
C     -1.001296      3.359544    -0.483842
C     -2.309502      2.786721    -1.062930
C     -2.934466      2.025365     0.127225
H     -2.113597      3.188024     1.751803
H     -1.182194      4.336943    -0.021376
H     -0.219014      3.503061    -1.224418
H     -2.957406      3.577870    -1.449589
H     -2.092487      2.095655    -1.880685
H     -3.910356      2.418937     0.423274
H     -3.045899      0.964321    -0.090918
N     -0.590156      2.440683     0.599656
C     -2.003456      1.209007     2.370457
O     -2.546302      0.137901     2.303747
O     -1.456423      1.666029     3.520230
C      0.173454      1.288653     0.180428
C      1.321954      1.677393    -0.743653
H      1.980891      0.817556    -0.880144
H      0.957213      1.965730    -1.730759
H      1.895962      2.502016    -0.311144
C      0.631381      0.311328     1.283069
H      0.263349      0.509832     2.285252
H      1.712534      0.175262     1.328919
H     -1.597888      0.980250     4.189361
C      2.240676     -3.870480    -1.227522
C      2.101720     -3.801674     0.150028
C      1.329635     -2.783290     0.683686
C      0.706767     -1.848884    -0.145279
C      0.863930     -1.945304    -1.524872
C      1.634506     -2.960116    -2.075783
H      2.592008     -4.535642     0.776706
H      1.208786     -2.713114     1.760505
H      0.375667     -1.218867    -2.162725
H      1.768507     -3.053061    -3.145976
N      3.062541     -4.953923    -1.809539
O      3.607235     -5.720191    -1.042121
O      3.142973     -5.011876    -3.018788
C     -0.130519     -0.762571     0.480861
O     -0.604889      0.219257    -0.456913
H     -0.970739     -1.210292     1.019667
40
 -1068.70833886 -1068.43302500  9.37 10.52
C      0.453368      2.464028     1.930408
C      2.530702      2.357959     1.040017
C      1.823658      3.422810     0.180157
C      0.401274      3.492778     0.780310
H      0.858337      2.963095     2.823530
H      2.998586      2.826901     1.913705
H      3.315641      1.815816     0.518830
H      2.347824      4.381442     0.217106
H      1.779350      3.110646    -0.866872
H      0.139695      4.485553     1.153062
H     -0.347624      3.200270     0.045297
N      1.474321      1.467028     1.552008
C     -0.880467      1.940565     2.433020
O     -1.022778      1.079985     3.262960
O     -1.928689      2.622112     1.925763
C      1.046407      0.369000     0.699110
C      2.097380     -0.070852    -0.310902
H      2.315813      0.714441    -1.036831
H      3.020125     -0.363932     0.198186
H      1.716520     -0.935252    -0.858401
C      0.404104     -0.842357     1.408930
H      0.212080     -0.689581     2.466984
H      0.920238     -1.788787     1.241865
H     -2.719941      2.266811     2.355872
C     -1.684168     -3.505389    -2.476437
C     -1.781498     -3.848773    -1.136990
C     -1.487503     -2.884713    -0.186963
C     -1.102600     -1.598979    -0.569277
C     -1.015528     -1.283797    -1.922232
C     -1.306433     -2.238540    -2.886943
H     -2.082029     -4.851066    -0.859644
H     -1.558867     -3.134921     0.867192
H     -0.715801     -0.284104    -2.211980
H     -1.244789     -2.013443    -3.944024
N     -1.995917     -4.526382    -3.500396
O     -2.296059     -5.636814    -3.113570
O     -1.933035     -4.192740    -4.665271
C     -0.809036     -0.576033     0.499789
O     -0.209247      0.634215    -0.008302
H     -1.733419     -0.349004     1.040931
