27
 -594.73213990 -594.54166300  0.00 0.00
C     -1.327875      0.394111    -0.256806
C      0.022866     -1.613540    -0.456544
C     -1.457783     -1.983837    -0.315086
C     -2.190578     -0.739599    -0.820126
H     -1.439697      1.318863    -0.824243
H      0.437146     -1.956250    -1.410453
H      0.636332     -2.007839     0.356513
H     -1.703393     -2.888919    -0.873619
H     -1.702787     -2.158814     0.736111
H     -2.189068     -0.703105    -1.914571
H     -3.216955     -0.657594    -0.465023
N      0.036966     -0.138049    -0.413147
H      1.858219      0.936738     2.281830
C     -1.758331      0.688708     1.209254
O     -2.892709      1.115034     1.331155
O     -0.933611      0.433570     2.161395
H      0.294494      0.316899     1.978072
C      1.138088      0.561472    -0.237154
O      1.426799      0.253547     1.758076
C      1.041192      2.064372    -0.231847
H      0.206422      2.422716     0.370835
H      1.967828      2.494744     0.149133
H      0.904038      2.405017    -1.265504
C      2.461092     -0.037794    -0.630251
H      2.551646      0.022585    -1.722218
H      3.270757      0.533354    -0.177366
H      2.558898     -1.076390    -0.318414
27
 -594.72922400 -594.53971200  1.83 1.22
C     -0.473154      0.279916     1.289190
C     -0.399760      1.442205    -0.843144
C     -0.905765      2.422140     0.209771
C     -1.420822      1.501358     1.313302
H      0.290175      0.354923     2.066514
H      0.350341      1.876580    -1.503932
H     -1.218194      1.041487    -1.452214
H     -0.075542      3.037910     0.570809
H     -1.673847      3.089585    -0.186114
H     -1.439805      1.962552     2.300813
H     -2.439343      1.170723     1.088781
N      0.176549      0.356448    -0.039571
H     -0.152451     -2.759558    -1.480213
C     -1.320735     -0.986006     1.581571
O     -1.579905     -1.170998     2.757596
O     -1.749852     -1.669486     0.581707
H     -1.075744     -1.751728    -0.480382
C      0.983822     -0.561469    -0.526585
O     -0.376263     -1.828047    -1.382591
C      1.647100     -1.520037     0.427323
H      0.985044     -1.871216     1.217879
H      2.036882     -2.378901    -0.119796
H      2.494035     -0.995566     0.887508
C      1.692070     -0.304982    -1.831174
H      2.479729      0.439990    -1.661680
H      2.152629     -1.228302    -2.180994
H      1.012809      0.050479    -2.604373
27
 -594.70161715 -594.51045600  19.15 19.58
C     -0.807731      0.378156    -0.698319
C     -0.223632     -1.640556     0.462089
C     -1.639716     -1.800260    -0.076590
C     -1.638733     -0.810843    -1.243001
H     -0.179302      0.808351    -1.477909
H      0.488691     -2.155832    -0.191734
H     -0.085102     -1.991540     1.486053
H     -1.855247     -2.824430    -0.386613
H     -2.370999     -1.502942     0.680829
H     -1.128081     -1.241661    -2.109186
H     -2.636216     -0.502071    -1.562186
N     -0.001949     -0.177444     0.407049
H     -0.067349      0.300139     1.507532
C     -1.754045      1.456513    -0.192066
O     -2.207254      1.536702     0.915715
O     -2.092045      2.297239    -1.192232
H     -2.728490      2.931041    -0.829031
C      1.439459      0.374106     0.780261
O      1.119164      0.670900     2.070221
C      1.772745      1.607947    -0.061786
H      2.678498      2.043391     0.367128
H      1.964849      1.380316    -1.115450
H      0.983284      2.358455     0.021540
C      2.525896     -0.688603     0.623411
H      3.463071     -0.240842     0.963681
H      2.323847     -1.548222     1.263885
H      2.656385     -1.018011    -0.413291
27
 -594.70063022 -594.50913800  19.77 20.41
C     -1.171467      0.153976    -0.253212
C      0.246885     -1.360569     0.950078
C     -1.160323     -1.522804     1.511924
C     -2.028588     -0.972187     0.377445
H     -1.176420      0.091253    -1.340981
H      0.460602     -2.143222     0.213168
H      1.032655     -1.358262     1.707039
H     -1.391952     -2.561141     1.756511
H     -1.278050     -0.918513     2.415502
H     -2.211085     -1.742805    -0.376225
H     -2.999529     -0.606399     0.717788
N      0.194595     -0.041464     0.286485
H      0.671750      0.827678     0.947199
C     -1.716350      1.528745     0.101700
O     -2.244766      2.273381    -0.678665
O     -1.591684      1.801284     1.415592
H     -1.957428      2.686607     1.558535
C      1.481781      0.500270    -0.484761
O      1.836359      1.380390     0.492954
C      1.095004      1.164172    -1.807625
H      0.346637      1.944133    -1.659362
H      1.998245      1.649369    -2.185951
H      0.744935      0.451911    -2.562048
C      2.497508     -0.616123    -0.728439
H      2.131919     -1.385880    -1.416419
H      3.381604     -0.149632    -1.170118
H      2.807169     -1.074166     0.211892
27
 -594.69826162 -594.50691800  21.26 21.80
C     -1.127217      0.369116    -0.023944
C      0.150354     -1.141966     1.357355
C     -1.335993     -1.507438     1.438877
C     -2.043545     -0.209340     1.062136
H     -1.334320     -0.102368    -0.988064
H      0.748084     -1.966015     0.970653
H      0.555138     -0.858880     2.332876
H     -1.573144     -2.291106     0.712629
H     -1.615484     -1.871509     2.429053
H     -3.061543     -0.355403     0.696467
H     -2.072543      0.478197     1.912501
N      0.235039      0.033463     0.444024
H      0.835733      1.020756     0.770579
C     -1.332860      1.877504    -0.132983
O     -1.108352      2.662881     0.744784
O     -1.883902      2.224851    -1.314374
H     -2.021004      3.183810    -1.289062
C      1.455825      0.221035    -0.565649
O      1.830683      1.429632    -0.066024
C      1.012553      0.238874    -2.029041
H      0.587228     -0.715693    -2.357898
H      0.304631      1.045294    -2.220480
H      1.904709      0.440921    -2.627485
C      2.507346     -0.868986    -0.347080
H      3.386750     -0.564216    -0.919307
H      2.802464     -0.914378     0.703202
H      2.193366     -1.859038    -0.693743
27
 -594.69872816 -594.50657800  20.97 22.02
C     -1.225170      0.056801     0.042324
C      0.516208     -1.199083     1.132787
C     -0.844729     -1.841942     1.440420
C     -1.848343     -0.712350     1.211610
H     -1.433958     -0.451533    -0.902759
H      1.155190     -1.870926     0.559640
H      1.054063     -0.912899     2.040433
H     -1.038213     -2.664035     0.745090
H     -0.887861     -2.244611     2.453841
H     -2.851980     -1.064466     0.967196
H     -1.911976     -0.065530     2.090777
N      0.225149      0.027968     0.341064
H      0.604137      1.110997     0.688752
C     -1.774787      1.472027    -0.083521
O     -2.389376      1.873638    -1.035120
O     -1.553202      2.208443     1.019334
H     -1.877447      3.101954     0.836798
C      1.233634      0.571933    -0.765105
O      1.322693      1.822341    -0.227000
C      0.658085      0.511068    -2.179284
H     -0.260609      1.090646    -2.266351
H      1.398177      0.968846    -2.841048
H      0.482556     -0.515412    -2.519475
C      2.553631     -0.199418    -0.693624
H      3.268537      0.359953    -1.301359
H      2.936886     -0.214472     0.328981
H      2.488701     -1.219940    -1.084403
