40
 -1068.69184832 -1068.42087200  0.00 0.00
C      0.492215      2.265293     2.148637
C      2.583576      1.271257     1.391676
C      2.819724      2.712071     1.850218
C      1.678727      2.953205     2.840634
H     -0.267312      1.943960     2.861773
H      3.112839      0.559383     2.033394
H      2.874639      1.093848     0.354284
H      3.810516      2.839528     2.289366
H      2.732959      3.397068     1.001859
H      1.884988      2.457993     3.794768
H      1.471150      4.005342     3.030979
N      1.124984      1.086278     1.536962
C     -0.185629      3.276653     1.191800
O     -0.742738      4.208054     1.729970
O     -0.074780      3.140648    -0.097718
C      0.484943     -0.013047     1.195612
C      1.293017     -1.193198     0.751185
H      0.642596     -2.052599     0.597292
H      1.780241     -0.957523    -0.199070
H      2.064105     -1.450272     1.481489
C     -0.916380     -0.048247     1.068039
H     -1.377043     -1.026443     1.120981
H     -1.493018      0.753299     1.515185
H      0.102569      2.164707    -0.576469
C     -1.916085     -3.297365    -2.740491
C     -2.876585     -2.687410    -1.948253
C     -2.557949     -1.485022    -1.339295
C     -1.299727     -0.906044    -1.516000
C     -0.356556     -1.544204    -2.319648
C     -0.662642     -2.747452    -2.940960
H     -3.845802     -3.152917    -1.825555
H     -3.295638     -0.981330    -0.722278
H      0.609072     -1.077650    -2.470293
H      0.050701     -3.256231    -3.576256
N     -2.248289     -4.582636    -3.402079
O     -1.402938     -5.082876    -4.112898
O     -3.345675     -5.054004    -3.191278
C     -0.982335      0.416092    -0.882605
O      0.105671      1.009803    -1.213341
H     -1.872111      1.041990    -0.711618
40
 -1068.69181243 -1068.42084100  0.02 0.02
C     -1.791718      1.777603    -1.902764
C     -0.850331     -0.136291    -3.079942
C     -2.164786      0.292335    -3.736027
C     -2.274328      1.771669    -3.361173
H     -1.381870      2.744931    -1.611212
H     -0.003807      0.004115    -3.759921
H     -0.856395     -1.172201    -2.734654
H     -2.155494      0.116513    -4.812951
H     -3.000794     -0.267656    -3.307116
H     -1.598356      2.376079    -3.974280
H     -3.281209      2.177967    -3.447336
N     -0.717608      0.772356    -1.922549
C     -2.999034      1.499972    -0.973692
O     -3.840276      2.371017    -0.940494
O     -3.102536      0.363169    -0.348713
C      0.262978      0.708649    -1.045567
C      1.378817     -0.257282    -1.300783
H      1.808515     -0.121062    -2.296177
H      2.158866     -0.130702    -0.551914
H      0.994189     -1.278249    -1.225917
C      0.200540      1.380774     0.189566
H      1.145886      1.556006     0.687055
H     -0.531449      2.171481     0.307475
H     -2.226263     -0.253167    -0.093051
C      2.618462     -1.601231     3.554414
C      2.106457     -2.394220     2.543112
C      1.059200     -1.901385     1.776375
C      0.535630     -0.634709     2.029508
C      1.071417      0.137736     3.061896
C      2.119507     -0.337858     3.832228
H      2.522893     -3.378117     2.370362
H      0.623390     -2.503685     0.988906
H      0.655260      1.119561     3.265449
H      2.548844      0.243659     4.637611
N      3.737228     -2.123028     4.376646
O      4.137929     -3.241382     4.134063
O      4.182242     -1.398533     5.241489
C     -0.625371     -0.123072     1.229335
O     -1.213321     -0.925016     0.418891
H     -1.253301      0.593256     1.781845
40
 -1068.68964121 -1068.41848200  1.38 1.50
C      3.035523      0.822636    -0.234936
C      2.274721     -0.318413    -2.242638
C      3.774849     -0.075664    -2.370388
C      4.010921      1.083302    -1.405128
H      3.534128      0.292209     0.579623
H      1.978509     -1.327394    -2.524867
H      1.695280      0.396150    -2.838179
H      4.321761     -0.967693    -2.048257
H      4.068675      0.152241    -3.396609
H      5.037180      1.157707    -1.046176
H      3.758351      2.033947    -1.885384
N      2.011962     -0.070688    -0.814905
C      2.594970      2.190974     0.327640
O      3.350066      2.703321     1.124647
O      1.537141      2.771305    -0.163486
C      1.052133     -0.644141    -0.116879
C      0.180038     -1.658588    -0.794934
H     -0.578016     -2.016930    -0.101236
H     -0.322800     -1.199522    -1.650815
H      0.765976     -2.509983    -1.151349
C      0.717420     -0.215767     1.181299
H      0.174495     -0.927681     1.789931
H      1.427885      0.395776     1.725862
H      0.651301      2.170535    -0.461482
C     -4.336747     -0.962023     1.415493
C     -3.541008     -0.590192     2.488119
C     -2.352739      0.071276     2.225642
C     -1.965905      0.351845     0.913609
C     -2.789617     -0.033627    -0.142621
C     -3.985575     -0.693948     0.104523
H     -3.860364     -0.816253     3.497075
H     -1.716642      0.382858     3.048342
H     -2.492826      0.205868    -1.156245
H     -4.644430     -0.995801    -0.699293
N     -5.613957     -1.666552     1.685107
O     -6.307243     -1.955628     0.733298
O     -5.886237     -1.909853     2.841641
C     -0.695748      1.102111     0.645171
O     -0.464867      1.506096    -0.552403
H     -0.398561      1.766187     1.471184
40
 -1068.68856457 -1068.41533600  2.06 3.47
C     -0.473534     -2.658748     0.218997
C      1.781145     -1.944614     0.215524
C      1.790788     -3.492259     0.161401
C      0.334760     -3.900017    -0.148032
H     -1.443256     -2.570067    -0.266273
H      2.519350     -1.495832    -0.444872
H      1.954817     -1.574112     1.229798
H      2.476459     -3.850379    -0.609306
H      2.112479     -3.898550     1.119553
H      0.204359     -4.106725    -1.214582
H      0.017019     -4.772417     0.421314
N      0.419844     -1.569311    -0.217495
C     -0.648433     -2.540264     1.757438
O     -0.109230     -3.328320     2.499441
O     -1.352715     -1.521404     2.187204
C      0.142966     -0.616416    -1.092669
C      1.223070      0.387884    -1.391446
H      0.798318      1.237942    -1.920955
H      1.692312      0.748171    -0.473683
H      1.996676     -0.060605    -2.021945
C     -1.120820     -0.455697    -1.700937
H     -1.105889      0.183298    -2.577695
H     -1.749512     -1.332341    -1.795921
H     -1.863475     -1.007979     1.443164
C      0.230682      3.805681     0.594911
C     -0.495445      3.849947    -0.583916
C     -1.301570      2.766409    -0.897873
C     -1.378656      1.658952    -0.052169
C     -0.638365      1.647350     1.128690
C      0.170962      2.726098     1.459416
H     -0.424884      4.717610    -1.227404
H     -1.885355      2.780489    -1.813925
H     -0.695880      0.798728     1.800218
H      0.750685      2.740126     2.373701
N      1.096538      4.958172     0.944921
O      1.695898      4.909631     1.997482
O      1.150703      5.877654     0.156219
C     -2.250277      0.490955    -0.444286
O     -2.649672     -0.350843     0.420543
H     -2.972863      0.761804    -1.234548
40
 -1068.68415034 -1068.41136000  4.83 5.97
C     -2.623438      0.502948     0.204428
C     -2.555879      1.669200     2.334285
C     -3.965400      1.141752     2.073637
C     -4.014544      1.028214     0.553513
H     -2.550278     -0.569641     0.392031
H     -2.147244      1.318232     3.283336
H     -2.533444      2.763786     2.331037
H     -4.090807      0.157759     2.535872
H     -4.725886      1.807896     2.484488
H     -4.791770      0.351173     0.195585
H     -4.161667      2.004333     0.084497
N     -1.746810      1.167855     1.200468
C     -2.245586      0.780837    -1.265506
O     -2.458359      1.853899    -1.772335
O     -1.734782     -0.248709    -1.915391
C     -0.425979      1.231828     1.181030
C      0.251259      1.731986     2.429028
H      0.068574      1.050678     3.265762
H      1.324386      1.804517     2.266104
H     -0.125478      2.717351     2.715847
C      0.392157      0.787912     0.120975
H      1.422022      1.109623     0.213546
H      0.020713      0.854658    -0.891278
H     -1.351595     -0.939775    -1.252343
C      3.896284     -1.801250    -2.221258
C      2.634834     -1.920000    -2.779896
C      1.526951     -1.689159    -1.977743
C      1.683492     -1.347679    -0.634681
C      2.969434     -1.238591    -0.103785
C      4.087437     -1.463366    -0.891226
H      2.533564     -2.190162    -3.823373
H      0.531274     -1.785436    -2.393417
H      3.096683     -0.986142     0.945244
H      5.091739     -1.387591    -0.494261
N      5.084336     -2.046824    -3.074487
O      6.177006     -1.907483    -2.567661
O      4.890619     -2.371768    -4.226137
C      0.476445     -1.128535     0.250577
O     -0.653246     -1.624065    -0.097278
H      0.742987     -1.190265     1.320769
40
 -1068.68413240 -1068.41134100  4.84 5.98
C     -2.661426     -0.288211     0.104573
C     -3.190490      1.949790     0.887138
C     -4.345096      1.001013     1.202745
C     -4.176413     -0.103377     0.164501
H     -2.304048     -0.877658     0.950644
H     -2.814732      2.460625     1.775236
H     -3.485611      2.705254     0.151742
H     -4.234906      0.596876     2.213764
H     -5.309402      1.508569     1.144566
H     -4.675591     -1.034125     0.438555
H     -4.542310      0.210924    -0.816194
N     -2.140985      1.088238     0.297431
C     -2.206562     -0.965545    -1.205013
O     -2.658371     -0.629312    -2.271045
O     -1.345482     -1.954771    -1.052665
C     -0.902887      1.506594     0.094560
C     -0.554363      2.879317     0.604926
H      0.463174      3.135449     0.317837
H     -1.231966      3.635761     0.200227
H     -0.630788      2.915368     1.696046
C      0.129789      0.736183    -0.480044
H      1.003516      1.320583    -0.740370
H     -0.120763     -0.000997    -1.228959
H     -0.861174     -1.875000    -0.145422
C      4.487992     -1.572118    -0.863829
C      3.391476     -2.395512    -1.056462
C      2.176369     -2.027913    -0.497419
C      2.065079     -0.853417     0.246289
C      3.190979     -0.047941     0.422237
C      4.412173     -0.398614    -0.131142
H      3.498675     -3.305386    -1.633287
H      1.308583     -2.662748    -0.629161
H      3.112913      0.861095     1.012106
H      5.296329      0.212231    -0.000442
N      5.789620     -1.960323    -1.459511
O      6.726106     -1.206793    -1.300132
O      5.837869     -3.006929    -2.069185
C      0.749223     -0.467583     0.885295
O     -0.138381     -1.370426     1.084750
H      0.891882      0.280825     1.685111
40
 -1068.68377352 -1068.41123100  5.07 6.05
C     -2.651674      0.308610    -0.039065
C     -3.150318     -0.683779     2.124748
C     -4.340610      0.163747     1.694047
C     -4.170460      0.222922     0.176453
H     -2.304477     -0.309806    -0.865451
H     -3.350038     -1.753804     1.987024
H     -2.853289     -0.514724     3.159972
H     -5.290497     -0.275337     2.004193
H     -4.255920      1.165610     2.121459
H     -4.551385     -0.689652    -0.292234
H     -4.683954      1.074720    -0.270017
N     -2.078952     -0.249963     1.210252
C     -2.194898      1.761031    -0.279183
O     -2.580118      2.662090     0.424355
O     -1.397174      1.935140    -1.316839
C     -0.792339     -0.407452     1.463716
C     -0.419605     -1.296093     2.619215
H      0.613720     -1.621700     2.508589
H     -0.493322     -0.734107     3.556475
H     -1.067185     -2.171759     2.695459
C      0.251632      0.162069     0.699033
H      1.217505      0.067914     1.180564
H      0.083884      1.145351     0.279537
H     -1.022074      1.040348    -1.646520
C      4.515816      0.303886    -1.803563
C      3.495544      1.040855    -2.380922
C      2.182522      0.695544    -2.096826
C      1.898075     -0.374236    -1.248445
C      2.950697     -1.097200    -0.686236
C      4.268670     -0.765159    -0.957557
H      3.736144      1.865253    -3.040226
H      1.366102      1.246719    -2.547805
H      2.735030     -1.940322    -0.035750
H      5.097115     -1.318227    -0.533454
N      5.921882      0.668412    -2.103399
O      6.111857      1.586998    -2.871180
O      6.795463      0.025132    -1.561947
C      0.463045     -0.762855    -0.966924
O     -0.447144     -0.382205    -1.786250
H      0.390730     -1.793973    -0.575297
40
 -1068.68065126 -1068.40886900  7.03 7.53
C     -0.813716     -2.217986     1.698904
C      0.783040     -0.489075     2.312282
C      0.388644     -1.263097     3.566624
C     -0.965996     -1.854692     3.185843
H     -0.482647     -3.252083     1.568351
H      1.860988     -0.359919     2.218884
H      0.308240      0.499032     2.281679
H      1.118634     -2.055949     3.758860
H      0.344980     -0.619954     4.447431
H     -1.247524     -2.725753     3.778453
H     -1.752655     -1.101661     3.294402
N      0.247731     -1.310510     1.214112
C     -2.141095     -2.042953     0.959144
O     -2.829920     -3.010003     0.725467
O     -2.395297     -0.796205     0.655750
C      0.652354     -1.222101    -0.041815
C      1.866116     -0.375359    -0.311776
H      1.702586      0.659383    -0.003427
H      2.726166     -0.763827     0.240973
H      2.101496     -0.381223    -1.373039
C      0.015151     -1.856942    -1.129363
H      0.683957     -2.068015    -1.957041
H     -0.706700     -2.638235    -0.924510
H     -2.545671     -0.714251    -0.488726
C      0.712803      3.192615    -1.699707
C      1.058397      2.374992    -2.761733
C      0.429504      1.142292    -2.870736
C     -0.523711      0.741590    -1.936186
C     -0.843399      1.583929    -0.871613
C     -0.227219      2.821156    -0.752021
H      1.796714      2.708776    -3.479305
H      0.675099      0.487640    -3.702501
H     -1.575439      1.271999    -0.137389
H     -0.461185      3.494660     0.062472
N      1.374029      4.513822    -1.572721
O      2.210893      4.803678    -2.401272
O      1.036590      5.223330    -0.649428
C     -1.207977     -0.580985    -2.117263
O     -2.404325     -0.760462    -1.711316
H     -0.969633     -1.057653    -3.076740
40
 -1068.66094875 -1068.38837100  19.39 20.39
C     -2.888847     -0.627785     1.175751
C     -3.631073     -0.054687    -0.939978
C     -4.243381     -1.449589    -0.631656
C     -3.567495     -1.907046     0.686762
H     -3.657593      0.060314     1.547516
H     -4.312223      0.751015    -0.648930
H     -3.382057      0.077187    -1.990860
H     -5.328952     -1.374413    -0.532471
H     -4.036353     -2.146987    -1.446642
H     -4.278685     -2.296029     1.417889
H     -2.815481     -2.678726     0.510489
N     -2.431894     -0.005816    -0.090551
C     -1.806897     -0.633536     2.264654
O     -1.553576      0.472442     2.752468
O     -1.205584     -1.727317     2.505940
C     -1.203983     -0.089205    -0.637727
C     -0.973492      0.747244    -1.872032
H      0.088002      0.984230    -1.957270
H     -1.255591      0.191541    -2.772289
H     -1.545728      1.677375    -1.843807
C     -0.160738     -0.877108    -0.171634
H      0.685051     -0.970117    -0.840816
H     -0.386332     -1.717605     0.466964
H      0.232429     -1.302166     2.572385
C      4.434776      1.367397    -0.672407
C      4.498522      0.136462    -0.039667
C      3.377014     -0.316310     0.638674
C      2.223314      0.465698     0.679600
C      2.186774      1.698387     0.028313
C      3.298709      2.162808    -0.655528
H      5.411111     -0.442635    -0.085711
H      3.392091     -1.272818     1.146488
H      1.282342      2.297292     0.066870
H      3.304706      3.116689    -1.165270
N      5.632210      1.857215    -1.396640
O      6.625540      1.162018    -1.375142
O      5.545287      2.924296    -1.966621
C      1.029773      0.008626     1.420479
O      1.173118     -0.998053     2.211361
H      0.245185      0.729714     1.641048
