40
 -1068.69362478 -1068.42040700  0.00 0.00
C      2.738050      1.166680     0.126273
C      2.912316     -1.245873     0.422954
C      4.294572     -0.680105     0.110355
C      3.967963      0.618504    -0.622402
H      3.035097      1.844141     0.930067
H      2.902399     -1.892637     1.301017
H      2.473782     -1.774435    -0.428164
H      4.840768     -0.477180     1.037132
H      4.889692     -1.370064    -0.490100
H      4.780200      1.345223    -0.628605
H      3.695554      0.404466    -1.661084
N      2.099685     -0.039913     0.683189
C      1.862082      1.977640    -0.844088
O      2.017334      3.172968    -0.895971
O      1.031944      1.327836    -1.632081
C      0.883033     -0.078942     1.182738
C      0.156192      1.198697     1.471911
H     -0.466591      1.464987     0.613820
H     -0.505997      1.049190     2.325636
H      0.826749      2.032905     1.680799
C      0.196008     -1.313442     1.291091
H     -0.667142     -1.301518     1.947602
H      0.794493     -2.212747     1.376075
H      0.855158      0.317482    -1.476493
C     -4.341137      0.229264    -0.411805
C     -4.107240     -0.937569     0.298534
C     -2.833022     -1.478461     0.268865
C     -1.806554     -0.868587    -0.457736
C     -2.077610      0.297547    -1.169936
C     -3.351249      0.854334    -1.147566
H     -4.913015     -1.400487     0.853843
H     -2.629943     -2.397702     0.810592
H     -1.301078      0.766706    -1.760910
H     -3.582693      1.756723    -1.699076
N     -5.701490      0.820378    -0.389944
O     -5.876229      1.849304    -1.006421
O     -6.554976      0.237139     0.243852
C     -0.441315     -1.525605    -0.507163
O      0.441802     -1.114615    -1.344782
H     -0.537591     -2.622229    -0.402017
40
 -1068.68127930 -1068.41073500  7.75 6.07
C      3.383255      0.066567     0.141783
C      2.000671      0.189797    -1.816771
C      3.313234      0.934839    -2.129338
C      4.273285      0.604784    -0.970184
H      3.873842     -0.651613     0.797926
H      1.704266     -0.506836    -2.603551
H      1.181375      0.898169    -1.658352
H      3.726741      0.617043    -3.088723
H      3.122743      2.006144    -2.178897
H      4.990872     -0.166776    -1.264483
H      4.829834      1.481526    -0.636002
N      2.270236     -0.574360    -0.589607
C      2.661416      1.155772     0.983871
O      2.447546      2.245568     0.471258
O      2.206795      0.716037     2.103139
C      1.332603     -1.306538     0.025066
C      1.751268     -2.161030     1.187749
H      0.901130     -2.743791     1.540805
H      2.549769     -2.841028     0.874479
H      2.120152     -1.540054     2.004884
C     -0.007643     -1.249846    -0.345065
H     -0.669490     -2.012023     0.044441
H     -0.295758     -0.815714    -1.292931
H      0.891993      0.552192     2.152310
C     -4.744252      0.229441     0.133034
C     -3.925646      0.801667    -0.828375
C     -2.561560      0.840665    -0.587313
C     -2.038271      0.326733     0.599058
C     -2.887587     -0.246054     1.546327
C     -4.253077     -0.298489     1.316477
H     -4.360757      1.200224    -1.735016
H     -1.896024      1.284583    -1.321575
H     -2.471372     -0.636404     2.466972
H     -4.935591     -0.732016     2.035265
N     -6.204302      0.183973    -0.115192
O     -6.612848      0.671441    -1.148092
O     -6.902029     -0.337333     0.728740
C     -0.582265      0.434394     0.865402
O     -0.177306      0.270919     2.067998
H     -0.007251      1.107432     0.222477
