40
 -1068.68938999 -1068.41872100  0.00 0.00
C      2.390501     -0.119544    -0.715816
C      3.117067     -0.989277     1.438508
C      3.907101     -1.650922     0.307220
C      3.842488     -0.610897    -0.812965
H      2.268680      0.887792    -1.114999
H      3.774730     -0.392756     2.078904
H      2.570658     -1.701135     2.061137
H      4.924944     -1.896228     0.614525
H      3.414844     -2.575531    -0.007764
H      4.525201      0.219872    -0.608342
H      4.061984     -1.009403    -1.802389
N      2.162164     -0.106278     0.737654
C      1.492818     -1.053767    -1.558400
O      1.696334     -1.055043    -2.750501
O      0.629909     -1.842037    -0.973527
C      1.280162      0.659445     1.349750
C      1.331249      0.735442     2.846766
H      1.007839     -0.224550     3.262633
H      2.338532      0.947934     3.211809
H      0.653979      1.511122     3.202780
C      0.200480      1.240817     0.664259
H     -0.245910      2.118975     1.115849
H      0.210735      1.235755    -0.418737
H      0.184212     -1.589197    -0.029389
C     -4.200217      0.797106    -1.660783
C     -3.383678     -0.286277    -1.933221
C     -2.366441     -0.598711    -1.041476
C     -2.176598      0.171123     0.106589
C     -3.018409      1.260063     0.348959
C     -4.038867      1.582286    -0.529852
H     -3.552014     -0.873515    -2.826858
H     -1.723895     -1.447641    -1.237054
H     -2.875938      1.856970     1.245364
H     -4.702913      2.419066    -0.355411
N     -5.290216      1.129024    -2.609741
O     -5.402679      0.438574    -3.599761
O     -6.002877      2.071638    -2.337038
C     -1.118924     -0.179419     1.119541
O     -0.535760     -1.316990     1.098062
H     -1.351274      0.236114     2.113720
40
 -1068.68938999 -1068.41871400  0.00 0.00
C      2.062279     -1.213251     0.716729
C      3.521054      0.278820    -0.536754
C      4.176653     -0.110552     0.790018
C      3.525712     -1.456476     1.114696
H      1.543779     -2.139272     0.466636
H      4.098344     -0.101598    -1.385573
H      3.388206      1.356348    -0.656139
H      5.263188     -0.162551     0.704259
H      3.931310      0.623287     1.563139
H      3.948331     -2.250284     0.490672
H      3.609938     -1.750069     2.160002
N      2.200941     -0.382864    -0.489955
C      1.318874     -0.586333     1.917923
O      1.216063     -1.281414     2.902203
O      0.910671      0.654111     1.865391
C      1.302432     -0.304744    -1.451982
C      1.689234      0.391477    -2.722846
H      0.914033      0.249368    -3.475170
H      1.787504      1.463979    -2.524841
H      2.639376      0.024913    -3.117677
C     -0.036034     -0.679976    -1.248780
H     -0.607330     -0.940592    -2.131989
H     -0.287751     -1.240166    -0.356688
H      0.651219      1.123771     0.934645
C     -4.511984      0.175443     0.801762
C     -3.493162      0.540024     1.664175
C     -2.245051      0.841647     1.136123
C     -2.029321      0.775448    -0.240769
C     -3.080382      0.400919    -1.082306
C     -4.331336      0.099800    -0.570530
H     -3.683697      0.590461     2.728564
H     -1.439892      1.135469     1.797326
H     -2.915930      0.354628    -2.155129
H     -5.157663     -0.187386    -1.207942
N     -5.846896     -0.142164     1.363838
O     -5.977601     -0.084833     2.567639
O     -6.726737     -0.440072     0.584155
C     -0.703000      1.152998    -0.845654
O      0.178514      1.780268    -0.164437
H     -0.803893      1.441412    -1.904738
40
 -1068.68937205 -1068.41870500  0.01 0.01
C      1.225121     -2.011045     0.832900
C     -0.233037     -3.545966    -0.368461
C      1.208865     -4.057895    -0.392662
C      1.820181     -3.426794     0.859795
H      1.185517     -1.561671     1.825574
H     -0.883275     -4.232281     0.183477
H     -0.654119     -3.385858    -1.363462
H      1.250868     -5.148238    -0.394811
H      1.724019     -3.695996    -1.287132
H      1.481958     -3.949671     1.759989
H      2.908879     -3.400566     0.857891
N     -0.141623     -2.256219     0.346315
C      2.128622     -1.109324    -0.038375
O      3.249433     -0.920517     0.374730
O      1.699187     -0.661383    -1.188601
C     -1.174384     -1.473183     0.589594
C     -2.540892     -1.977423     0.232056
H     -2.633565     -2.010160    -0.858569
H     -2.722712     -2.980532     0.624158
H     -3.300511     -1.300911     0.622479
C     -1.013245     -0.135903     0.988708
H     -1.845178      0.318285     1.514024
H     -0.032537      0.195605     1.307013
H      0.654410     -0.493746    -1.374351
C      0.262422      4.578055    -0.070260
C     -1.011807      4.236364     0.355332
C     -1.456817      2.947191     0.115594
C     -0.647098      2.016522    -0.541209
C      0.630549      2.393193    -0.956525
C      1.091560      3.681412    -0.720830
H     -1.627224      4.971141     0.858275
H     -2.454121      2.657517     0.434360
H      1.264759      1.682434    -1.470726
H      2.077024      3.996155    -1.039529
N      0.751550      5.955748     0.177748
O     -0.002510      6.726691     0.732558
O      1.874606      6.227572    -0.188811
C     -1.194345      0.644709    -0.834845
O     -0.624021     -0.126360    -1.680280
H     -2.296504      0.633056    -0.823130
40
 -1068.68944383 -1068.41597600  -0.03 1.72
C      2.401696     -0.781198     0.210638
C      1.719522      0.480053    -1.751113
C      2.537716     -0.739257    -2.174637
C      3.377404     -1.039887    -0.937044
H      1.723475     -1.626007     0.345553
H      0.733101      0.504605    -2.218193
H      2.240813      1.412958    -1.988322
H      1.873095     -1.579066    -2.400660
H      3.135916     -0.533936    -3.063945
H      3.756358     -2.062846    -0.909920
H      4.223883     -0.353471    -0.854016
N      1.587689      0.354957    -0.283053
C      3.130787     -0.510980     1.542509
O      4.070390      0.240837     1.600627
O      2.687681     -1.200908     2.582202
C      0.751908      1.099223     0.425063
C     -0.112409      2.067463    -0.335986
H      0.494753      2.734034    -0.953807
H     -0.804200      1.535115    -0.993877
H     -0.696535      2.669109     0.356757
C      0.554854      0.975948     1.818467
H     -0.048365      1.774014     2.236718
H      1.387527      0.702246     2.450532
H      1.744159     -1.541170     2.414686
C     -3.639422     -0.067686    -0.746315
C     -3.692032      0.630226     0.449782
C     -2.670293      0.442815     1.368434
C     -1.620549     -0.433128     1.097446
C     -1.597454     -1.123208    -0.113168
C     -2.607880     -0.943084    -1.046678
H     -4.519181      1.301326     0.643479
H     -2.689555      0.982670     2.310550
H     -0.783654     -1.813201    -0.303031
H     -2.611648     -1.470526    -1.992124
N     -4.725385      0.126101    -1.735300
O     -4.642936     -0.476844    -2.784227
O     -5.630542      0.875207    -1.434471
C     -0.499842     -0.634159     2.090658
O      0.240150     -1.666247     1.964452
H     -0.780999     -0.312096     3.111336
40
 -1068.68938999 -1068.41593200  0.00 1.75
C      2.345849     -0.912400    -0.295585
C      1.793265      1.282370    -1.180001
C      2.551297      0.473038    -2.231607
C      3.336979     -0.532015    -1.395156
H      1.616539     -1.638340    -0.660311
H      0.823547      1.631518    -1.539904
H      2.374111      2.148599    -0.847439
H      1.845922     -0.043856    -2.889904
H      3.185191      1.110177    -2.850559
H      3.655358     -1.409505    -1.960337
H      4.218983     -0.070810    -0.943555
N      1.612900      0.351357    -0.044702
C      3.051361     -1.496568     0.945173
O      4.031086     -0.973762     1.412413
O      2.539496     -2.625786     1.409982
C      0.801652      0.610430     0.969550
C      0.016408      1.892241     0.905445
H     -0.551596      2.027205     1.823176
H      0.678222      2.751941     0.772829
H     -0.685885      1.875145     0.068021
C      0.558505     -0.272199     2.045336
H     -0.009389      0.181353     2.850004
H      1.355639     -0.909804     2.399988
H      1.582578     -2.749041     1.087475
C     -3.614366      0.600948    -0.617275
C     -2.626712     -0.010424    -1.373168
C     -1.655422     -0.754335    -0.718922
C     -1.673425     -0.877746     0.669157
C     -2.678359     -0.248008     1.401415
C     -3.660941      0.494126     0.763637
H     -2.633761      0.096761    -2.450449
H     -0.877536     -1.262950    -1.276245
H     -2.693458     -0.341652     2.483263
H     -4.453326      0.985992     1.313416
N     -4.658661      1.392484    -1.308564
O     -4.581050      1.491338    -2.514713
O     -5.527483      1.892104    -0.625558
C     -0.595097     -1.679823     1.359481
O      0.087633     -2.500425     0.660050
H     -0.886057     -1.979674     2.384140
40
 -1068.68646512 -1068.41571600  1.84 1.89
C      1.602489     -1.704060     0.906400
C     -0.060497     -3.461034     1.099930
C      1.282539     -4.035703     1.536456
C      2.282111     -3.093827     0.869156
H      1.960945     -1.112001     1.751269
H     -0.880440     -3.737757     1.760055
H     -0.318007     -3.761701     0.077921
H      1.367362     -3.985875     2.626836
H      1.404526     -5.076783     1.231870
H      3.255056     -3.064116     1.359029
H      2.445561     -3.391297    -0.171206
N      0.173639     -2.007924     1.120368
C      2.008215     -0.954598    -0.376512
O      3.094909     -0.423858    -0.373175
O      1.241895     -1.049941    -1.433511
C     -0.734200     -1.095959     1.414126
C     -2.104970     -1.555346     1.821430
H     -2.725150     -0.693448     2.063465
H     -2.569387     -2.098084     0.991855
H     -2.068366     -2.214542     2.692328
C     -0.513091      0.272704     1.192224
H     -1.119634      0.959052     1.771030
H      0.492097      0.618296     0.984408
H      0.164519     -0.967772    -1.323950
C     -0.188108      4.225359    -1.846347
C     -1.199456      4.112127    -0.905482
C     -1.569409      2.842401    -0.494722
C     -0.945553      1.705676    -1.016308
C      0.070539      1.855249    -1.961302
C      0.453505      3.122098    -2.380788
H     -1.675638      5.002531    -0.515668
H     -2.364244      2.727594     0.236979
H      0.563702      0.984485    -2.372523
H      1.235510      3.260739    -3.116347
N      0.217471      5.578407    -2.297966
O     -0.373486      6.526936    -1.826979
O      1.114408      5.654254    -3.109842
C     -1.430284      0.347999    -0.582958
O     -1.147979     -0.707293    -1.248605
H     -2.443101      0.397009    -0.152938
40
 -1068.68646512 -1068.41571600  1.84 1.89
C      1.887702     -1.227074    -1.105496
C      3.617564      0.231538    -0.228061
C      4.295785     -0.861503    -1.046493
C      3.244903     -1.969213    -1.061016
H      1.503681     -1.167616    -2.126189
H      4.021229      1.223971    -0.419843
H      3.679517      0.031008     0.847655
H      4.490860     -0.495333    -2.059641
H      5.244914     -1.176034    -0.608629
H      3.339976     -2.656489    -1.901311
H      3.306314     -2.560808    -0.142431
N      2.209192      0.138619    -0.645914
C      0.878489     -2.056227    -0.289312
O      0.378417     -3.004675    -0.848749
O      0.725228     -1.790964     0.983389
C      1.371218      1.155338    -0.724902
C      1.888071      2.533991    -0.428062
H      2.724847      2.800863    -1.078392
H      1.091909      3.263679    -0.568615
H      2.225477      2.581013     0.612316
C     -0.008859      0.969970    -0.904817
H     -0.558821      1.809446    -1.313235
H     -0.376149     -0.003700    -1.204957
H      0.651993     -0.757967     1.310738
C     -4.532320     -0.247359     0.832396
C     -3.565295     -1.133060     1.273847
C     -2.243187     -0.712241     1.323638
C     -1.903624      0.584032     0.933489
C     -2.905839      1.450925     0.489134
C     -4.229021      1.045709     0.436352
H     -3.851407     -2.132220     1.576532
H     -1.477827     -1.394973     1.668088
H     -2.644012      2.462050     0.190128
H     -5.018031      1.705804     0.099809
N     -5.945238     -0.695130     0.783828
O     -6.774709      0.106845     0.410225
O     -6.185257     -1.834709     1.120194
C     -0.491545      1.096278     1.031696
O      0.393777      0.489237     1.727465
H     -0.459921      2.196986     1.055153
40
 -1068.68847485 -1068.41516500  0.57 2.23
C      1.935982     -0.241038     1.408246
C      2.416318      0.028911    -0.955303
C      3.706171     -0.368232    -0.248751
C      3.191291     -1.042071     1.022544
H      1.110532     -0.885066     1.708254
H      1.969120     -0.821418    -1.486478
H      2.547456      0.849224    -1.660363
H      4.327316     -1.024041    -0.861469
H      4.279147      0.527245     0.004677
H      2.908868     -2.080289     0.823171
H      3.928168     -1.038509     1.826017
N      1.541176      0.443589     0.154155
C      2.221443      0.747239     2.554311
O      3.189269      1.465478     2.540336
O      1.359468      0.711926     3.559208
C      0.497941      1.245470     0.000323
C      0.054332      1.532787    -1.407611
H     -0.004733      0.615775    -1.998943
H     -0.927504      2.000780    -1.395158
H      0.751929      2.216203    -1.900961
C     -0.262529      1.772167     1.067676
H     -0.961391      2.538961     0.752013
H      0.245458      2.010191     1.992755
H      0.517324      0.207432     3.303081
C     -3.019390     -1.185098    -1.866850
C     -3.565068     -0.024853    -1.341587
C     -3.041790      0.473055    -0.157715
C     -1.997492     -0.183058     0.492080
C     -1.475819     -1.352628    -0.057743
C     -1.982517     -1.861508    -1.244624
H     -4.379752      0.466888    -1.857883
H     -3.451507      1.384017     0.269088
H     -0.678792     -1.867455     0.465544
H     -1.593488     -2.769580    -1.687439
N     -3.569599     -1.724449    -3.132313
O     -4.498280     -1.130587    -3.638146
O     -3.057792     -2.726565    -3.584353
C     -1.410844      0.374782     1.768484
O     -0.741153     -0.403043     2.527457
H     -2.079266      1.117373     2.244272
40
 -1068.68639334 -1068.41500000  1.88 2.33
C      1.155834     -2.222216     1.199788
C     -0.848714     -3.486089     1.051954
C     -0.012425     -4.082418     2.209821
C      1.116333     -3.062900     2.471797
H      1.569130     -1.221298     1.308540
H     -1.904535     -3.396229     1.301294
H     -0.755298     -4.079146     0.137849
H     -0.629490     -4.228791     3.098722
H      0.397209     -5.047463     1.915028
H      0.871593     -2.416716     3.320065
H      2.073849     -3.545817     2.662845
N     -0.270779     -2.145616     0.833308
C      1.874691     -2.974325     0.043669
O      2.191965     -4.135727     0.177612
O      2.033246     -2.307539    -1.068622
C     -0.965921     -1.058857     0.554440
C     -2.381781     -1.240211     0.075744
H     -2.470376     -2.076343    -0.620848
H     -3.046151     -1.432832     0.924389
H     -2.716893     -0.325932    -0.412919
C     -0.447046      0.249485     0.612265
H     -1.208013      1.020476     0.630679
H      0.393294      0.430164     1.269672
H      1.882319     -1.266179    -0.979555
C     -0.085721      4.721415    -1.544207
C     -1.076469      3.851978    -1.971218
C     -0.879058      2.491687    -1.793766
C      0.292102      2.012701    -1.205914
C      1.270870      2.913160    -0.788233
C      1.086577      4.277903    -0.954691
H     -1.974236      4.245326    -2.430934
H     -1.639971      1.791868    -2.127788
H      2.182847      2.525642    -0.350372
H      1.834588      4.995560    -0.642585
N     -0.287302      6.179512    -1.729043
O     -1.310245      6.539471    -2.271672
O      0.582368      6.921946    -1.326452
C      0.518931      0.531155    -1.043776
O      1.708751      0.123604    -0.825450
H     -0.126069     -0.070412    -1.711438
40
 -1068.68633951 -1068.41495100  1.91 2.37
C     -1.621625     -2.054810    -0.928456
C     -1.395580     -1.364735    -3.189002
C     -2.718255     -2.161233    -3.080515
C     -2.979955     -2.323326    -1.568107
H     -1.645851     -1.716408     0.105649
H     -1.496812     -0.465702    -3.794388
H     -0.588181     -1.975178    -3.603124
H     -3.534691     -1.625966    -3.569656
H     -2.609063     -3.132158    -3.561553
H     -3.696590     -1.577125    -1.212257
H     -3.352120     -3.315709    -1.316685
N     -1.072957     -0.996191    -1.796601
C     -0.675759     -3.281649    -1.067064
O     -1.002924     -4.228647    -1.747958
O      0.487389     -3.183459    -0.480239
C     -0.566375      0.162681    -1.419225
C      0.056480      1.030348    -2.480314
H     -0.720796      1.564701    -3.036190
H      0.701213      1.770677    -2.007842
H      0.640280      0.443819    -3.192613
C     -0.512468      0.605839    -0.083166
H     -0.332424      1.669508     0.016997
H     -1.239237      0.204639     0.610987
H      0.558634     -2.396962     0.220821
C      2.161482      2.759044     3.521322
C      1.376408      1.701480     3.949966
C      1.007057      0.732731     3.028392
C      1.419117      0.828635     1.700130
C      2.207161      1.907989     1.299392
C      2.588363      2.881843     2.208870
H      1.072425      1.645480     4.987472
H      0.411031     -0.120531     3.328878
H      2.536690      1.980996     0.266733
H      3.204893      3.724074     1.921498
N      2.563558      3.796324     4.502764
O      3.272729      4.696988     4.107404
O      2.158773      3.680496     5.639579
C      1.033061     -0.246614     0.716496
O      0.615689     -1.362165     1.175586
H      1.689229     -0.259726    -0.173982
40
 -1068.68474250 -1068.41287900  2.92 3.67
C     -0.605308     -3.018088     0.595548
C     -0.112201     -2.914120    -1.790826
C      0.487194     -4.195746    -1.207337
C     -0.326929     -4.428301     0.067995
H     -1.556988     -2.941484     1.123389
H     -0.930019     -3.133250    -2.488269
H      0.634361     -2.312182    -2.312204
H      0.419542     -5.028434    -1.910601
H      1.535403     -4.028791    -0.955763
H     -1.274293     -4.927687    -0.159597
H      0.207111     -5.032746     0.803859
N     -0.634486     -2.189913    -0.621681
C      0.521064     -2.473396     1.507235
O      1.648157     -2.388867     1.025714
O      0.138046     -2.052682     2.651421
C     -0.941962     -0.893491    -0.613742
C     -0.883758     -0.159684    -1.923868
H     -1.500050     -0.655867    -2.679283
H     -1.237844      0.862194    -1.795425
H      0.139564     -0.120375    -2.308949
C     -1.268499     -0.199852     0.547737
H     -1.758747      0.756093     0.422918
H     -1.500687     -0.746236     1.450104
H      0.468806     -0.730292     2.766913
C      0.445357      4.595074     0.046318
C     -0.073168      4.284700     1.293853
C     -0.029082      2.965848     1.716238
C      0.524853      1.984359     0.893846
C      1.030433      2.325717    -0.359189
C      0.999771      3.642410    -0.793270
H     -0.492881      5.068256     1.910369
H     -0.415270      2.686513     2.688843
H      1.461265      1.557666    -0.992970
H      1.393562      3.940396    -1.755574
N      0.409352      6.005709    -0.408147
O     -0.098734      6.821549     0.331449
O      0.890840      6.257718    -1.492512
C      0.605209      0.580238     1.355524
O      0.480070      0.353294     2.608861
H      1.200951     -0.116250     0.761070
40
 -1068.68393502 -1068.41211400  3.42 4.15
C      2.667040     -0.041048     1.633468
C      3.346244      0.546449    -0.612412
C      4.607128      0.438361     0.239276
C      4.069366      0.593435     1.664456
H      2.640563     -1.031873     2.091320
H      3.452605      0.084127    -1.593996
H      3.042250      1.592916    -0.741380
H      5.061757     -0.547408     0.099208
H      5.349085      1.195856    -0.020856
H      4.707116      0.117723     2.411107
H      3.974138      1.651781     1.919337
N      2.347672     -0.157888     0.197157
C      1.596723      0.861338     2.291082
O      1.443410      1.980562     1.806130
O      0.896790      0.315500     3.208849
C      1.195215     -0.643637    -0.264383
C      0.958655     -0.578344    -1.747674
H      1.038033      0.448394    -2.117547
H      1.695792     -1.182001    -2.285895
H     -0.034470     -0.957570    -1.984039
C      0.208702     -1.174582     0.561919
H     -0.535314     -1.799195     0.086208
H      0.441631     -1.401203     1.592021
H     -0.425279      0.402419     2.857556
C     -4.372335     -0.303846    -1.576601
C     -4.413861     -0.873394    -0.313617
C     -3.356714     -0.637826     0.550761
C     -2.282173      0.153697     0.144513
C     -2.264337      0.705170    -1.135433
C     -3.318152      0.484395    -2.009489
H     -5.262641     -1.479402    -0.026301
H     -3.358911     -1.056947     1.549487
H     -1.424570      1.318826    -1.444987
H     -3.338528      0.906687    -3.005070
N     -5.504893     -0.544332    -2.503030
O     -5.459128     -0.015060    -3.593371
O     -6.407519     -1.254816    -2.114363
C     -1.168052      0.439564     1.076512
O     -1.367074      0.238481     2.325473
H     -0.445961      1.204697     0.784601
40
 -1068.68188940 -1068.41208300  4.71 4.17
C      2.664236      0.332474    -1.688130
C      3.493592      0.423189     0.600763
C      4.518664     -0.275013    -0.294346
C      4.198133      0.277758    -1.684975
H      2.280928      1.130107    -2.327489
H      3.868330      1.391595     0.953184
H      3.211604     -0.178556     1.467111
H      5.542742     -0.072598     0.025394
H      4.353977     -1.355272    -0.269365
H      4.606967      1.286276    -1.803470
H      4.577534     -0.341375    -2.499055
N      2.332422      0.619693    -0.284204
C      2.052739     -0.992894    -2.195026
O      1.965189     -1.141461    -3.396963
O      1.678596     -1.817659    -1.268070
C      1.110236      0.897284     0.142121
C      0.944086      1.269570     1.590329
H      1.063695      0.388555     2.229283
H      1.687635      2.006677     1.902620
H     -0.052242      1.677654     1.755611
C     -0.033774      0.791756    -0.656701
H     -0.875395      1.403111    -0.360980
H      0.072872      0.621178    -1.720432
H      0.440752     -1.986378    -1.307145
C     -4.733435     -0.017520     1.073463
C     -4.511659     -0.367375    -0.249277
C     -3.224854     -0.704331    -0.636060
C     -2.183436     -0.686878     0.292067
C     -2.435832     -0.319355     1.612851
C     -3.720665      0.013089     2.017374
H     -5.338070     -0.376443    -0.947627
H     -3.012877     -0.996758    -1.657137
H     -1.625597     -0.308458     2.335019
H     -3.947753      0.290500     3.038175
N     -6.109962      0.335742     1.496378
O     -6.282901      0.617092     2.663474
O     -6.978541      0.321788     0.650193
C     -0.812341     -1.092093    -0.121174
O     -0.690088     -1.812552    -1.169005
H     -0.095502     -1.252117     0.691218
