40
 -1068.70004873 -1068.42598100  0.00 0.00
C     -2.915460      0.444154     0.258017
C     -1.086132     -1.072638     0.701683
C     -1.830348     -0.752823     2.004745
C     -3.226304     -0.325189     1.544214
H     -3.779312      0.528523    -0.400310
H     -1.090342     -2.144343     0.485201
H     -0.055238     -0.719681     0.713001
H     -1.844121     -1.611916     2.677805
H     -1.337420      0.072745     2.524562
H     -3.848642     -1.196096     1.314129
H     -3.751515      0.305631     2.260275
N     -1.853197     -0.367728    -0.353864
C     -2.435415      1.876499     0.627252
O     -3.251865      2.591544     1.166971
O     -1.190238      2.192623     0.417314
C     -1.423007     -0.187080    -1.581321
C     -2.354637      0.371256    -2.619288
H     -2.868055      1.264352    -2.262555
H     -1.786254      0.635245    -3.508910
H     -3.098302     -0.395399    -2.869880
C     -0.137212     -0.864617    -2.015602
H     -0.199012     -1.144344    -3.068212
H      0.107816     -1.754284    -1.435652
H     -0.631052      1.736840    -0.459412
C      3.815034     -0.223329     1.194571
C      2.993268      0.885554     1.287030
C      2.005839      1.070737     0.327426
C      1.844011      0.154059    -0.706890
C      2.694439     -0.952844    -0.773628
C      3.684437     -1.151808     0.174748
H      3.130057      1.589664     2.097766
H      1.354310      1.932487     0.390329
H      2.588879     -1.665364    -1.586085
H      4.350924     -2.003736     0.133841
N      4.869487     -0.423536     2.213460
O      5.556479     -1.419512     2.122184
O      4.983699      0.419642     3.077789
C      0.798153      0.353889    -1.792703
O     -0.131326      1.377770    -1.559154
H      1.347579      0.573056    -2.720850
40
 -1068.69409132 -1068.42137900  3.74 2.89
C     -3.192450      0.377569     1.159197
C     -0.895960      0.300226     1.957511
C     -1.655416      1.439256     2.644600
C     -3.120535      1.011115     2.551582
H     -4.006712     -0.344042     1.079226
H     -0.561199     -0.456861     2.672508
H     -0.048606      0.647877     1.365608
H     -1.313754      1.587631     3.670016
H     -1.501870      2.375681     2.100282
H     -3.356746      0.259791     3.311488
H     -3.828311      1.833678     2.641069
N     -1.891054     -0.303344     1.039498
C     -3.462152      1.467505     0.086205
O     -4.483979      2.100478     0.219589
O     -2.619334      1.665650    -0.891408
C     -1.552970     -1.035833     0.016378
C     -2.599503     -1.578269    -0.911913
H     -2.149541     -1.758242    -1.887795
H     -2.941753     -2.538693    -0.505135
H     -3.459916     -0.923892    -1.040854
C     -0.161925     -1.584640    -0.150171
H     -0.185643     -2.655194    -0.374572
H      0.460382     -1.422398     0.729426
H     -1.761831      1.089257    -1.004093
C      4.489988      0.105610    -1.177784
C      3.605251      1.143531    -0.945524
C      2.240971      0.883342    -1.001923
C      1.777077     -0.395036    -1.289329
C      2.695597     -1.420091    -1.522980
C      4.059586     -1.179337    -1.468789
H      3.984849      2.133668    -0.727142
H      1.513995      1.669124    -0.840081
H      2.342447     -2.420151    -1.757329
H      4.785798     -1.961904    -1.648180
N      5.945830      0.375688    -1.116212
O      6.697875     -0.558711    -1.296313
O      6.297600      1.513602    -0.889490
C      0.281417     -0.676556    -1.330012
O     -0.506415      0.446553    -1.190273
H      0.078913     -1.213642    -2.276877
40
 -1068.69227898 -1068.41869000  4.88 4.58
C     -3.385960     -0.086903    -0.035353
C     -1.547839     -1.478585    -0.819932
C     -2.790260     -2.351409    -0.681036
C     -3.650850     -1.569308     0.306924
H     -4.150408      0.298546    -0.713012
H     -1.030788     -1.621509    -1.768597
H     -0.837686     -1.620464     0.001297
H     -3.292608     -2.444451    -1.649110
H     -2.543337     -3.355009    -0.330984
H     -4.714990     -1.795872     0.247658
H     -3.328472     -1.769225     1.333657
N     -2.076223     -0.106012    -0.729593
C     -3.503800      0.740491     1.267817
O     -4.631905      0.948320     1.652520
O     -2.440944      1.112529     1.931156
C     -1.315286      0.950956    -0.845213
C     -1.921634      2.325808    -0.842373
H     -1.943275      2.663320    -1.885358
H     -2.932797      2.381049    -0.443544
H     -1.282926      3.005413    -0.277618
C      0.125029      0.879782    -1.289013
H      0.330225      1.571085    -2.111639
H      0.428824     -0.123689    -1.582404
H     -1.491378      1.017893     1.506771
C      4.592311     -0.576823     0.575390
C      4.461595      0.468081    -0.325771
C      3.216415      1.059381    -0.471221
C      2.120717      0.613672     0.269965
C      2.285039     -0.435671     1.166869
C      3.526689     -1.038927     1.327245
H      5.322396      0.800960    -0.891612
H      3.097729      1.883723    -1.168456
H      1.428115     -0.759167     1.743802
H      3.674642     -1.854985     2.023168
N      5.918120     -1.218174     0.739306
O      6.014416     -2.110120     1.555032
O      6.827515     -0.812035     0.046952
C      0.755158      1.252193     0.077500
O     -0.206657      0.806495     0.968006
H      0.895095      2.348650     0.120806
