72
 -1725.71803750 -1725.18861900  0.00 0.00
C      1.767047      2.555002     0.779344
C      0.755297      3.095944    -0.020199
C      1.104529      3.696006    -1.228759
C      2.433608      3.755476    -1.599348
C      3.436760      3.208115    -0.776297
C      3.122705      2.596596     0.425970
C     -0.170042      2.201644     1.849701
C     -0.527527      2.819517     0.640735
H      0.342863      4.091458    -1.893207
H      2.737802      4.213918    -2.533313
H      3.878348      2.172076     1.072994
H     -0.814456      1.910736     2.668077
N      1.181806      2.001335     1.903918
C      1.896585      1.333331     2.968024
H      2.444986      0.468152     2.582759
H      2.601361      2.017082     3.451512
H      1.174296      0.989789     3.709547
O      4.706637      3.330355    -1.259403
C      5.765273      2.791443    -0.491908
H      5.654045      1.708089    -0.359142
H      6.677230      2.991586    -1.055264
H      5.836276      3.275322     0.490124
N     -2.086053      2.254415    -1.394081
C     -2.249765      1.966482    -2.733662
O     -2.558266      2.837237    -3.523394
C     -2.030656      0.521416    -3.150247
H     -1.153499      0.523484    -3.805696
H     -2.877809      0.251548    -3.786620
C     -1.865356     -0.462251    -1.995489
H     -2.829626     -0.640669    -1.508289
H     -1.525453     -1.428907    -2.365136
C     -0.872142      0.089838    -0.946420
C     -0.889708     -0.773484     0.344069
H      0.066612     -0.642968     0.874991
C     -1.753522      3.698656     0.510117
H     -1.494324      4.738447     0.729390
H     -2.484618      3.368170     1.251317
C     -2.352681      3.603417    -0.898455
H     -3.428050      3.799715    -0.888368
H     -1.902295      4.315249    -1.590763
C      0.535202      0.282143    -1.521692
H      0.535237      1.127299    -2.216433
H      1.202659      0.570747    -0.706846
C      1.107172     -0.952813    -2.220758
H      1.054841     -1.841707    -1.586012
H      0.579621     -1.179832    -3.151203
H      2.157510     -0.781376    -2.472988
O     -1.073938     -2.147333     0.052256
C     -0.210728     -3.033583     0.748509
H      0.833028     -2.702821     0.627763
H     -0.437084     -3.021406     1.819454
C     -0.362644     -4.429938     0.199876
C     -0.691175     -4.653245    -1.135318
C     -0.137749     -5.523829     1.031321
C     -0.786008     -5.948107    -1.628750
H     -0.884165     -3.807966    -1.784979
C     -0.231997     -6.820497     0.539369
H      0.110708     -5.359825     2.076463
C     -0.555277     -7.035906    -0.794139
H     -1.043829     -6.108757    -2.671161
H     -0.055654     -7.663423     1.200360
H     -0.629948     -8.047079    -1.181780
C     -1.562270      1.352391    -0.464285
O     -2.434976      0.980757     0.517992
C     -2.001854     -0.141818     1.123966
C     -2.409260     -0.318433     2.487138
O     -3.086301      0.465196     3.126750
O     -1.915502     -1.472057     3.013832
C     -2.269123     -1.706031     4.376495
H     -1.897214     -0.899601     5.012949
H     -3.354583     -1.770667     4.483736
H     -1.802920     -2.653247     4.648981
72
 -1725.71681730 -1725.18656700  0.77 1.29
C      1.667685      2.953697     0.135932
C      0.660489      2.955916    -0.833449
C      1.018188      3.112556    -2.170887
C      2.348918      3.274323    -2.504186
C      3.346394      3.272497    -1.510674
C      3.025224      3.110461    -0.173165
C     -0.275555      2.674550     1.216617
C     -0.616697      2.717146    -0.146021
H      0.267723      3.082254    -2.954164
H      2.660124      3.396708    -3.535258
H      3.776209      3.108081     0.605154
H     -0.938236      2.600974     2.068460
N      1.077132      2.764674     1.373914
C      1.791104      2.685359     2.628969
H      1.068830      2.522199     3.429605
H      2.500543      1.852264     2.618321
H      2.333538      3.615300     2.825411
O      4.619089      3.437699    -1.973141
C      5.674827      3.433315    -1.032147
H      5.729094      2.478884    -0.493853
H      6.590743      3.572794    -1.607235
H      5.574412      4.254735    -0.311915
N     -1.872244      1.166918    -1.836410
C     -1.818233      0.390627    -2.978145
O     -2.158521      0.842291    -4.053434
C     -1.330337     -1.037831    -2.806365
H     -0.389164     -1.111090    -3.360295
H     -2.042135     -1.673387    -3.340014
C     -1.167558     -1.479543    -1.355826
H     -2.157074     -1.619445    -0.907769
H     -0.661393     -2.442603    -1.301684
C     -0.389614     -0.414966    -0.548080
C     -0.400353     -0.715289     0.979644
H      0.466796     -0.210440     1.428952
C     -1.947090      3.254931    -0.630651
H     -1.868497      4.327915    -0.827222
H     -2.679213      3.108599     0.166288
C     -2.400555      2.528212    -1.903257
H     -3.490442      2.510333    -1.985464
H     -2.015820      2.996137    -2.809497
C      1.027873     -0.204332    -1.089901
H      0.982700      0.260656    -2.079199
H      1.537181      0.514652    -0.445959
C      1.865764     -1.482277    -1.156439
H      1.471119     -2.200728    -1.880166
H      2.888035     -1.238220    -1.459003
H      1.908500     -1.978381    -0.183275
O     -0.210119     -2.079011     1.317245
C     -1.352348     -2.895587     1.543322
H     -1.431986     -3.084572     2.620382
H     -2.268516     -2.374991     1.247281
C     -1.241290     -4.205726     0.797719
C     -2.396468     -4.915244     0.478957
C     -0.004045     -4.734850     0.439351
C     -2.320922     -6.135272    -0.182716
H     -3.367553     -4.506855     0.746843
C      0.072971     -5.953479    -0.225055
H      0.898774     -4.185458     0.678676
C     -1.083690     -6.658601    -0.536596
H     -3.230597     -6.675636    -0.425689
H      1.043444     -6.355375    -0.500054
H     -1.020483     -7.610421    -1.054508
C     -1.309411      0.790811    -0.613551
O     -2.200684      0.676571     0.409792
C     -1.658442     -0.038465     1.421273
C     -2.107177      0.267735     2.744996
O     -2.908804      1.135144     3.044728
O     -1.495832     -0.529901     3.662277
C     -1.854860     -0.267602     5.017536
H     -1.600810      0.759897     5.289256
H     -2.927102     -0.418382     5.165323
H     -1.283548     -0.973854     5.620098
72
 -1725.71868348 -1725.18617000  -0.41 1.54
C      1.978927      2.078496     1.393301
C      0.979543      2.835078     0.772693
C      1.354515      3.886341    -0.060903
C      2.695242      4.165498    -0.241802
C      3.684659      3.394827     0.398154
C      3.345626      2.337015     1.225616
C      0.014132      1.221878     2.043355
C     -0.315026      2.245809     1.141931
H      0.607368      4.470407    -0.588851
H      3.019913      4.975440    -0.884855
H      4.090610      1.736212     1.729433
H     -0.653159      0.616703     2.640100
N      1.368679      1.086446     2.141419
C      2.057036      0.074320     2.911410
H      1.325023     -0.665571     3.239484
H      2.807494     -0.427607     2.294399
H      2.548015      0.509620     3.787959
O      4.968475      3.773590     0.134497
C      6.016206      3.035746     0.732701
H      6.942812      3.496589     0.389014
H      5.972233      3.090899     1.827491
H      5.997968      1.984919     0.417969
N     -1.663943      2.414638    -1.099103
C     -1.646842      2.691478    -2.452776
O     -1.953504      3.791742    -2.866468
C     -1.242856      1.551828    -3.370064
H     -0.305905      1.857305    -3.846918
H     -1.987909      1.519848    -4.169690
C     -1.108012      0.199023    -2.679791
H     -2.098734     -0.191350    -2.423479
H     -0.654941     -0.529106    -3.349771
C     -0.273097      0.325642    -1.381541
C     -0.319059     -0.988434    -0.554020
H      0.612669     -1.106035     0.021353
C     -1.609263      3.024824     1.237044
H     -1.468033      3.915607     1.855841
H     -2.349127      2.386699     1.725019
C     -2.106477      3.438457    -0.153662
H     -3.195262      3.532070    -0.176334
H     -1.693329      4.394282    -0.475787
C      1.159225      0.791639    -1.659219
H      1.152492      1.828690    -2.007198
H      1.705021      0.798553    -0.714533
C      1.916051     -0.085134    -2.657785
H      2.961178      0.232898    -2.711479
H      1.897128     -1.137404    -2.360165
H      1.498746     -0.017885    -3.666061
O     -0.435438     -2.084479    -1.455039
C     -0.227876     -3.382235    -0.932885
H      0.283781     -3.947404    -1.720396
H      0.437330     -3.348257    -0.061768
C     -1.505620     -4.108623    -0.561781
C     -2.759680     -3.601370    -0.876486
C     -1.415101     -5.325760     0.111098
C     -3.908336     -4.296702    -0.512164
H     -2.834622     -2.653912    -1.396871
C     -2.559892     -6.021473     0.475173
H     -0.436280     -5.726132     0.365104
C     -3.813784     -5.506203     0.164753
H     -4.883941     -3.888902    -0.759116
H     -2.474723     -6.965461     1.004677
H     -4.711967     -6.045558     0.448536
C     -1.125323      1.256385    -0.535416
O     -2.013050      0.483222     0.144400
C     -1.476088     -0.741374     0.367566
C     -1.855780     -1.374900     1.591767
O     -2.729577     -0.991594     2.348480
O     -1.076122     -2.462551     1.854873
C     -1.546294     -3.294358     2.915057
H     -2.527311     -3.703904     2.660328
H     -0.818902     -4.101033     3.005573
H     -1.617908     -2.729951     3.846607
72
 -1725.71803750 -1725.18572600  0.00 1.82
C      1.637361      2.375263     1.341863
C      0.687699      2.920051     0.461087
C      1.108538      3.836089    -0.489985
C      2.446646      4.211840    -0.546050
C      3.374150      3.659074     0.350958
C      2.982340      2.730767     1.306577
C     -0.343148      1.470452     1.870113
C     -0.604629      2.285831     0.759890
H      0.410510      4.246833    -1.212938
H      2.761624      4.926196    -1.294919
H      3.718856      2.321134     1.987695
H     -1.049462      0.920005     2.474997
N      0.988840      1.475906     2.171187
C      1.621235      0.683542     3.202247
H      0.902955     -0.057954     3.556343
H      2.492353      0.161114     2.797559
H      1.939327      1.309320     4.042505
O      4.702535      3.977047     0.361410
C      5.177937      4.909855    -0.589920
H      6.248037      5.008051    -0.404353
H      5.022281      4.552997    -1.615133
H      4.700287      5.889560    -0.467433
N     -1.610849      1.928856    -1.635625
C     -1.409161      1.965559    -3.002380
O     -1.722628      2.943517    -3.651193
C     -0.797649      0.725408    -3.628242
H      0.176895      1.028852    -4.024137
H     -1.411843      0.484551    -4.500195
C     -0.675579     -0.467222    -2.686053
H     -1.664410     -0.898635    -2.497041
H     -0.078654     -1.255080    -3.141335
C     -0.054645     -0.037142    -1.333900
C     -0.133202     -1.183989    -0.288766
H      0.708970     -1.110940     0.417168
C     -1.948312      2.942223     0.531512
H     -1.963526      3.937480     0.985040
H     -2.707363      2.332316     1.026063
C     -2.258226      3.056156    -0.966411
H     -3.335145      3.041780    -1.152883
H     -1.866979      3.975083    -1.402771
C      1.367477      0.507040    -1.498890
H      1.341584      1.461563    -2.032661
H      1.764444      0.731438    -0.507792
C      2.323591     -0.455680    -2.204376
H      2.332704     -1.436240    -1.719992
H      2.058147     -0.606594    -3.254160
H      3.340644     -0.054325    -2.175684
O     -0.039894     -2.427097    -0.976560
C      0.174963     -3.587854    -0.197889
H      0.834281     -4.232409    -0.790521
H      0.700252     -3.339561     0.732126
C     -1.091738     -4.353674     0.129210
C     -2.316687     -4.029091    -0.439237
C     -1.019970     -5.419586     1.024230
C     -3.457072     -4.753678    -0.107424
H     -2.377494     -3.199110    -1.133153
C     -2.156480     -6.144246     1.356378
H     -0.064811     -5.675805     1.476918
C     -3.382441     -5.811033     0.790620
H     -4.410613     -4.488612    -0.554175
H     -2.087184     -6.968205     2.059962
H     -4.274294     -6.373549     1.048190
C     -1.085949      0.941845    -0.799755
O     -2.008458      0.221354    -0.110638
C     -1.428030     -0.889065     0.407903
C     -1.940492     -1.329685     1.667440
O     -2.940389     -0.902752     2.216317
O     -1.136373     -2.276379     2.231059
C     -1.700827     -2.949106     3.356074
H     -2.603482     -3.486900     3.054388
H     -0.942013     -3.655777     3.691997
H     -1.947360     -2.238974     4.147539
72
 -1725.71286962 -1725.18559700  3.24 1.90
C      2.697537      0.081198     1.269285
C      2.656444     -1.218926     0.732068
C      2.707485     -2.295294     1.603194
C      2.776418     -2.080517     2.975188
C      2.793440     -0.773108     3.485305
C      2.757593      0.326214     2.637993
C      2.678866      0.290113    -0.958604
C      2.555868     -1.086862    -0.728742
H      2.679522     -3.313342     1.228350
H      2.810230     -2.932513     3.641055
H      2.788150      1.325044     3.056863
H      2.755175      0.801492    -1.908156
N      2.687470      0.981626     0.218152
C      2.683017      2.422838     0.336782
H      2.385600      2.842333    -0.626781
H      1.957515      2.736291     1.091950
H      3.671559      2.804641     0.612214
O      2.853317     -0.478603     4.817411
C      2.885608     -1.548991     5.741850
H      3.775287     -2.175211     5.602728
H      2.922434     -1.089966     6.730314
H      1.985504     -2.171039     5.667723
N      0.724608     -2.841760    -1.647197
C     -0.315771     -3.746406    -1.656471
O     -0.102277     -4.934975    -1.795669
C     -1.720718     -3.192039    -1.486655
H     -2.157854     -3.763454    -0.664954
H     -2.275564     -3.501664    -2.377759
C     -1.857605     -1.679260    -1.275343
H     -1.978670     -1.185795    -2.244128
H     -2.766963     -1.464554    -0.708285
C     -0.650419     -1.021547    -0.558317
C     -0.637415      0.498873    -0.869965
H     -0.035549      1.011543    -0.104534
C      3.025269     -2.112298    -1.734734
H      4.039028     -2.445192    -1.491581
H      3.060767     -1.626669    -2.713644
C      2.095908     -3.324124    -1.801270
H      2.202716     -3.858743    -2.747763
H      2.304654     -4.041493    -1.002870
C     -0.648095     -1.248256     0.958220
H      0.202587     -0.713076     1.385963
H     -1.548879     -0.750108     1.339332
C     -0.633784     -2.686978     1.475385
H     -1.592775     -3.189149     1.331225
H      0.142591     -3.290040     0.999174
H     -0.426785     -2.685293     2.549158
O     -1.938764      1.053847    -0.885481
C     -2.111886      2.176045    -0.036863
H     -1.852686      1.902695     0.998456
H     -1.440430      2.987558    -0.342713
C     -3.543676      2.647859    -0.089043
C     -3.841171      3.965451     0.251096
C     -4.582310      1.789375    -0.438670
C     -5.154214      4.419886     0.248751
H     -3.035267      4.644114     0.518071
C     -5.896095      2.242696    -0.442350
H     -4.356402      0.767488    -0.718220
C     -6.187009      3.557331    -0.097468
H     -5.370269      5.450070     0.514532
H     -6.697699      1.564028    -0.717885
H     -7.214190      3.908420    -0.101081
C      0.541271     -1.479854    -1.377669
O      0.579427     -0.671742    -2.485675
C      0.065616      0.534791    -2.187591
C      0.493509      1.654823    -2.972137
O      1.292040      1.620355    -3.889365
O     -0.077140      2.811473    -2.530727
C      0.290169      3.976983    -3.267033
H     -0.237006      4.807749    -2.797497
H      1.370650      4.135587    -3.223667
H     -0.009514      3.878009    -4.313230
72
 -1725.71843226 -1725.18543700  -0.25 2.00
C      1.243086     -0.864717    -1.981900
C      1.600285      0.493708    -2.001899
C      1.246969      1.260267    -3.101345
C      0.567865      0.675299    -4.164890
C      0.230216     -0.686589    -4.124167
C      0.561281     -1.475398    -3.030272
C      2.335136     -0.445150    -0.071219
C      2.261092      0.794854    -0.723279
H      1.468105      2.322740    -3.131815
H      0.296085      1.285911    -5.015540
H      0.290444     -2.524538    -3.026256
H      2.841871     -0.681331     0.853928
N      1.675542     -1.406045    -0.782739
C      1.448248     -2.768828    -0.353828
H      2.078495     -3.469604    -0.910965
H      1.681657     -2.840395     0.710092
H      0.398808     -3.037459    -0.495844
O     -0.433145     -1.334550    -5.127180
C     -0.811319     -0.593578    -6.271335
H     -1.498766      0.221007    -6.013425
H      0.062064     -0.183472    -6.792871
H     -1.322347     -1.297679    -6.928827
N      1.281188      3.151248    -0.135858
C      0.362867      4.152292    -0.381651
O      0.659318      5.114083    -1.062410
C     -1.008826      3.982930     0.249389
H     -1.715156      3.882233    -0.581036
H     -1.247139      4.936174     0.729296
C     -1.127285      2.820388     1.231348
H     -0.615238      3.062669     2.168522
H     -2.169871      2.641235     1.488166
C     -0.496703      1.537500     0.635646
C     -0.389232      0.414678     1.705389
H     -0.361739     -0.563343     1.203947
C      3.295576      1.883581    -0.541547
H      4.077721      1.790811    -1.300558
H      3.756591      1.750067     0.439377
C      2.649675      3.272528    -0.635018
H      3.204663      4.010294    -0.049648
H      2.604798      3.641794    -1.659788
C     -1.205549      1.090150    -0.647218
H     -0.961471      1.782462    -1.458578
H     -0.793493      0.125624    -0.947960
C     -2.723336      0.959196    -0.523250
H     -3.213087      1.926557    -0.383004
H     -3.130425      0.513537    -1.435435
H     -2.997750      0.318721     0.316515
O     -1.527306      0.471465     2.550936
C     -1.848482     -0.704259     3.296731
H     -1.048829     -0.932302     4.002908
H     -2.742420     -0.424276     3.859676
C     -2.143442     -1.916213     2.436205
C     -1.221248     -2.953282     2.318642
C     -3.348677     -2.011347     1.741961
C     -1.490709     -4.056196     1.514209
H     -0.282554     -2.889919     2.859596
C     -3.620967     -3.106886     0.933943
H     -4.078784     -1.212122     1.833578
C     -2.688949     -4.132927     0.816544
H     -0.763312     -4.858772     1.436018
H     -4.561937     -3.161908     0.395684
H     -2.900491     -4.991143     0.186450
C      0.955248      1.937181     0.472908
O      1.567932      1.713712     1.663701
C      0.949625      0.711205     2.331979
C      1.829038     -0.051420     3.168900
O      3.012972      0.181227     3.332710
O      1.211680     -1.117236     3.757438
C      2.047077     -1.885541     4.623068
H      2.438893     -1.260580     5.428823
H      1.413738     -2.674941     5.030499
H      2.884133     -2.315386     4.067832
72
 -1725.71581244 -1725.18411700  1.40 2.83
C      2.112951      0.110701    -2.332533
C      1.830950      1.424659    -1.922787
C      1.485007      2.362542    -2.882449
C      1.436957      1.996431    -4.223633
C      1.728996      0.678397    -4.607340
C      2.070089     -0.284025    -3.666005
C      2.362705      0.170998    -0.106787
C      1.931684      1.459414    -0.456167
H      1.224605      3.377660    -2.599259
H      1.162789      2.738091    -4.961907
H      2.293653     -1.293427    -3.990419
H      2.669249     -0.188094     0.865454
N      2.406967     -0.637577    -1.204487
C      2.726323     -2.048268    -1.197629
H      3.715699     -2.231723    -1.629047
H      2.711395     -2.400207    -0.164622
H      1.979759     -2.607480    -1.767900
O      1.705048      0.241380    -5.901189
C      1.357417      1.163705    -6.915908
H      2.067618      1.998201    -6.962662
H      1.397256      0.607310    -7.852932
H      0.342883      1.554765    -6.773043
N     -0.080325      3.002461     0.191337
C     -1.208296      3.661012    -0.265130
O     -1.155962      4.827707    -0.598107
C     -2.494248      2.854362    -0.303409
H     -2.778113      2.771914    -1.356919
H     -3.261914      3.474709     0.166926
C     -2.391171      1.489589     0.367776
H     -2.319083      1.634520     1.449773
H     -3.288214      0.898561     0.182960
C     -1.137545      0.733973    -0.130462
C     -0.871119     -0.579337     0.667446
H     -0.346100     -1.283210     0.008597
C      2.311012      2.687739     0.341316
H      3.226549      3.130521    -0.061174
H      2.509077      2.372228     1.367795
C      1.183008      3.727832     0.317680
H      1.183456      4.336423     1.225610
H      1.263327      4.408861    -0.529237
C     -1.189058      0.485157    -1.642120
H     -1.083322      1.429959    -2.183157
H     -0.320775     -0.114869    -1.917373
C     -2.452738     -0.240414    -2.108570
H     -2.354686     -0.509593    -3.164096
H     -2.619263     -1.157772    -1.537261
H     -3.347197      0.381256    -2.010874
O     -2.058870     -1.276460     1.034887
C     -2.599421     -1.054028     2.332102
H     -2.338636     -0.062984     2.711145
H     -3.687254     -1.090775     2.208473
C     -2.177771     -2.099081     3.339968
C     -1.752069     -1.727424     4.609232
C     -2.230857     -3.452049     3.012997
C     -1.396325     -2.691835     5.548206
H     -1.685356     -0.673661     4.865808
C     -1.869939     -4.415732     3.942609
H     -2.535805     -3.741234     2.012259
C     -1.455597     -4.038194     5.217149
H     -1.068802     -2.387629     6.537585
H     -1.911422     -5.467563     3.676249
H     -1.177013     -4.793035     5.945845
C     -0.006117      1.618632     0.362945
O      0.313600      1.211068     1.618500
C      0.040788     -0.113981     1.754095
C      0.936430     -0.874492     2.571231
O      1.820053     -0.421452     3.278430
O      0.714003     -2.206271     2.421031
C      1.473268     -3.050150     3.284952
H      1.268235     -2.804997     4.328840
H      1.144819     -4.066120     3.068013
H      2.542758     -2.937594     3.091362
72
 -1725.71617132 -1725.18375700  1.17 3.05
C      2.209437      1.592426     1.843568
C      0.918796      2.127377     1.793110
C      0.759271      3.457825     1.413536
C      1.873444      4.215625     1.108093
C      3.163748      3.656646     1.167971
C      3.356203      2.335227     1.536309
C      0.804353     -0.042028     2.451632
C     -0.021862      1.048484     2.131098
H     -0.229269      3.897859     1.330883
H      1.783314      5.253018     0.807179
H      4.339787      1.889283     1.594548
H      0.515128     -0.997256     2.866356
N      2.111872      0.263508     2.222912
C      3.224341     -0.651058     2.359006
H      3.840163     -0.636702     1.455595
H      3.846843     -0.390134     3.220910
H      2.827114     -1.658558     2.493173
O      4.176252      4.509984     0.839583
C      5.500083      4.013305     0.865704
H      6.139349      4.845319     0.568747
H      5.785362      3.682702     1.872110
H      5.632795      3.186218     0.157235
N     -1.981542      1.512006     0.484504
C     -2.405644      2.246916    -0.608047
O     -3.046319      3.268035    -0.459068
C     -2.043779      1.692914    -1.972913
H     -1.359625      2.414339    -2.430662
H     -2.958400      1.725903    -2.570992
C     -1.453226      0.288266    -1.937132
H     -2.235072     -0.431102    -1.678875
H     -1.080857      0.001841    -2.918891
C     -0.318191      0.199974    -0.891268
C      0.170362     -1.265257    -0.679996
H      1.221051     -1.238599    -0.355203
C     -1.359211      1.275726     2.804253
H     -1.232670      1.906791     3.688400
H     -1.740515      0.306084     3.130399
C     -2.350104      1.934198     1.834717
H     -3.379733      1.642683     2.057534
H     -2.306073      3.022460     1.868449
C      0.837139      1.152563    -1.216756
H      0.517292      2.189752    -1.081410
H      1.631632      0.987394    -0.487580
C      1.416363      0.969325    -2.620729
H      2.315793      1.581940    -2.731106
H      1.688499     -0.073189    -2.806435
H      0.713507      1.274778    -3.400872
O      0.171632     -2.008415    -1.899013
C     -0.575473     -3.221421    -1.998576
H     -0.135452     -3.730550    -2.860796
H     -0.418008     -3.848428    -1.120844
C     -2.052980     -3.017734    -2.245181
C     -2.488086     -2.570566    -3.492399
C     -2.998716     -3.257697    -1.252040
C     -3.834301     -2.338212    -3.735413
H     -1.756364     -2.386261    -4.274572
C     -4.350125     -3.030372    -1.492269
H     -2.681453     -3.615793    -0.277695
C     -4.770358     -2.565076    -2.731515
H     -4.155533     -1.980260    -4.708613
H     -5.075332     -3.215443    -0.705913
H     -5.824257     -2.383314    -2.917890
C     -1.059254      0.465874     0.408952
O     -1.512984     -0.726900     0.870883
C     -0.686567     -1.724712     0.456361
C     -0.472790     -2.782836     1.389394
O     -1.061804     -2.939548     2.446190
O      0.528552     -3.618424     0.978546
C      0.792749     -4.714234     1.852350
H      1.092750     -4.355537     2.840334
H     -0.096318     -5.340786     1.959995
H      1.603271     -5.278168     1.390146
72
 -1725.71559711 -1725.18223000  1.53 4.01
C     -0.235457     -1.675758    -1.784275
C      0.209473     -0.623210    -2.592445
C     -0.623176     -0.165017    -3.610443
C     -1.859847     -0.751532    -3.796745
C     -2.290650     -1.802996    -2.965583
C     -1.486939     -2.284293    -1.945328
C      1.832777     -1.158039    -1.101088
C      1.533779     -0.216341    -2.100728
H     -0.318133      0.658076    -4.248534
H     -2.530980     -0.415223    -4.578707
H     -1.793849     -3.099991    -1.304963
H      2.769639     -1.303049    -0.582813
N      0.758333     -1.965399    -0.864526
C      0.660597     -2.932111     0.208049
H      1.435404     -2.706323     0.943779
H     -0.310778     -2.850108     0.701587
H      0.793107     -3.954650    -0.160318
O     -3.532811     -2.289902    -3.250702
C     -4.035993     -3.339862    -2.448007
H     -4.121355     -3.036395    -1.397194
H     -5.029050     -3.566535    -2.837291
H     -3.408534     -4.236860    -2.520306
N      1.536052      2.439310    -2.102587
C      0.950781      3.687574    -2.175597
O      1.020962      4.347454    -3.192847
C      0.217135      4.174122    -0.935415
H     -0.837958      4.235411    -1.222281
H      0.541090      5.204894    -0.768647
C      0.407533      3.322484     0.318027
H      1.397027      3.500743     0.750283
H     -0.314316      3.612456     1.083088
C      0.277393      1.817515    -0.004951
C      0.773811      0.945979     1.195996
H      0.262784     -0.025361     1.164403
C      2.602775      0.440756    -2.946609
H      2.737366     -0.108331    -3.883126
H      3.541776      0.392258    -2.389648
C      2.258688      1.903025    -3.255583
H      3.158650      2.491884    -3.449177
H      1.616517      1.998820    -4.133182
C     -1.094459      1.448239    -0.593350
H     -1.112295      1.786116    -1.634168
H     -1.165645      0.360684    -0.639282
C     -2.342150      1.982267     0.108730
H     -2.494346      1.509257     1.079004
H     -2.322438      3.065752     0.252460
H     -3.221704      1.750359    -0.498971
O      0.645140      1.508414     2.493200
C     -0.595853      1.366102     3.168641
H     -0.407698      1.786890     4.161067
H     -1.368941      1.985154     2.701387
C     -1.103282     -0.055245     3.315123
C     -2.472082     -0.310807     3.301072
C     -0.220205     -1.117702     3.504769
C     -2.956551     -1.604036     3.467336
H     -3.171693      0.509194     3.161899
C     -0.702556     -2.410375     3.664674
H      0.846332     -0.921575     3.507896
C     -2.071468     -2.658836     3.645861
H     -4.026672     -1.785054     3.452071
H     -0.005637     -3.230342     3.812284
H     -2.444919     -3.670046     3.773058
C      1.404668      1.589527    -1.001289
O      2.544352      1.400997    -0.283395
C      2.234567      0.812382     0.887472
C      3.292452      0.087818     1.524831
O      4.399125     -0.086607     1.047156
O      2.914831     -0.441099     2.720905
C      3.929516     -1.189572     3.388968
H      3.481100     -1.541477     4.318796
H      4.250237     -2.035136     2.775768
H      4.794654     -0.556714     3.600461
72
 -1725.71258252 -1725.18085700  3.42 4.87
C      1.731376      1.824244    -1.686448
C      2.360561      0.565639    -1.701046
C      3.714513      0.500119    -1.415641
C      4.418923      1.658001    -1.104907
C      3.761977      2.897634    -1.075931
C      2.408639      2.997752    -1.370459
C      0.193622      0.327966    -2.320523
C      1.334823     -0.432994    -2.035163
H      4.236136     -0.451433    -1.415510
H      5.474752      1.588095    -0.879605
H      1.929656      3.969521    -1.357283
H     -0.743551     -0.010181    -2.738001
N      0.405479      1.646591    -2.042453
C     -0.598606      2.685774    -2.112943
H     -1.582010      2.212564    -2.098961
H     -0.516595      3.343977    -1.244273
H     -0.490989      3.284261    -3.023617
O      4.379528      4.077630    -0.774012
C      5.757019      4.052431    -0.452681
H      6.033715      5.085294    -0.238777
H      5.951267      3.437195     0.434109
H      6.360158      3.684933    -1.291846
N      1.722665     -2.516153    -0.398466
C      2.203384     -3.241288     0.671487
O      3.097482     -4.050103     0.519793
C      1.564971     -2.978812     2.023400
H      2.386124     -2.697809     2.685933
H      1.222427     -3.952205     2.387559
C      0.416563     -1.965790     2.062149
H     -0.522940     -2.482574     1.845966
H      0.315022     -1.555421     3.068463
C      0.555131     -0.796869     1.049217
C     -0.834283     -0.135849     0.824182
H     -0.701606      0.904989     0.490552
C      1.595208     -1.768927    -2.691799
H      2.220699     -1.640889    -3.580457
H      0.630683     -2.171051    -3.013610
C      2.268787     -2.753465    -1.733783
H      2.092646     -3.788671    -2.035227
H      3.351091     -2.610757    -1.693670
C      1.561567      0.272506     1.489531
H      1.579633      1.056251     0.729835
H      1.134817      0.729890     2.390443
C      2.997809     -0.156480     1.790327
H      3.636505      0.729276     1.846879
H      3.082642     -0.679042     2.745668
H      3.411465     -0.798841     1.009656
O     -1.525273     -0.125324     2.064709
C     -2.673479      0.693107     2.171396
H     -2.642173      1.136342     3.173242
H     -2.634753      1.512762     1.444129
C     -3.979028     -0.060625     2.010265
C     -5.170126      0.661855     1.965713
C     -4.023776     -1.444998     1.907910
C     -6.387488      0.013190     1.809262
H     -5.142193      1.746572     2.040867
C     -5.242959     -2.097325     1.752131
H     -3.100369     -2.010608     1.939437
C     -6.427222     -1.372787     1.700597
H     -7.306988      0.589168     1.769829
H     -5.265882     -3.179779     1.669364
H     -7.376418     -1.884607     1.577338
C      0.756263     -1.513238    -0.272151
O     -0.485321     -1.866035    -0.716030
C     -1.400815     -0.970298    -0.285963
C     -2.528261     -0.766345    -1.145492
O     -2.824081     -1.457075    -2.101752
O     -3.220620      0.357388    -0.802166
C     -4.488661      0.501998    -1.442855
H     -4.896370      1.447696    -1.086139
H     -4.374606      0.512058    -2.528443
H     -5.148281     -0.320022    -1.153252
72
 -1725.71103933 -1725.17988100  4.39 5.48
C     -1.893432     -1.940299     1.190639
C     -2.454088     -0.748637     1.668818
C     -2.678222     -0.624114     3.037254
C     -2.321861     -1.653272     3.886041
C     -1.731305     -2.828726     3.385065
C     -1.509842     -2.995395     2.028057
C     -2.350685     -0.674492    -0.593065
C     -2.674941      0.128392     0.511100
H     -3.118090      0.279525     3.446138
H     -2.479716     -1.581746     4.956075
H     -1.073834     -3.897105     1.620016
H     -2.477576     -0.445403    -1.641807
N     -1.830263     -1.864699    -0.190751
C     -1.249603     -2.857027    -1.069511
H     -1.233319     -2.446616    -2.080146
H     -0.220949     -3.077361    -0.770124
H     -1.834194     -3.782135    -1.060800
O     -1.413719     -3.760170     4.329077
C     -0.809909     -4.964419     3.898486
H      0.148981     -4.776639     3.399751
H     -0.635747     -5.552501     4.800049
H     -1.469351     -5.525921     3.225214
N     -1.879169      2.647275     1.083650
C     -1.270152      3.679338     1.769527
O     -1.927062      4.445288     2.445770
C      0.237345      3.810156     1.634724
H      0.615178      3.865410     2.657353
H      0.416951      4.801717     1.207663
C      0.953431      2.737484     0.806700
H      0.989203      3.070660    -0.234020
H      1.988870      2.637364     1.142597
C      0.273141      1.345271     0.842305
C      0.742942      0.486844    -0.366428
H      0.526221     -0.563555    -0.130806
C     -3.712561      1.223355     0.415093
H     -4.683753      0.857360     0.761964
H     -3.817345      1.491096    -0.639711
C     -3.323874      2.464477     1.216002
H     -3.849007      3.353096     0.859206
H     -3.563753      2.355140     2.277355
C      0.529519      0.580634     2.146370
H      0.066976     -0.404349     2.060445
H      1.611388      0.404718     2.179734
C      0.093100      1.214945     3.467718
H      0.150445      0.468000     4.264282
H      0.733138      2.049286     3.762251
H     -0.938879      1.572457     3.437291
O      2.145642      0.505529    -0.573778
C      2.699860      1.366338    -1.554990
H      1.919340      1.972126    -2.026093
H      3.396510      2.050294    -1.052902
C      3.442182      0.598608    -2.628044
C      3.890558     -0.700273    -2.414585
C      3.685628      1.205258    -3.857597
C      4.569861     -1.381676    -3.417483
H      3.682840     -1.181226    -1.466008
C      4.365134      0.526083    -4.861537
H      3.331701      2.217508    -4.036830
C      4.810599     -0.771969    -4.643749
H      4.911115     -2.397524    -3.241717
H      4.544845      1.010462    -5.816391
H      5.340781     -1.307089    -5.425259
C     -1.151064      1.650693     0.420150
O     -1.134818      1.759007    -0.941141
C     -0.171038      0.960016    -1.449230
C     -0.337392      0.446316    -2.774203
O     -1.236336      0.711252    -3.551702
O      0.660788     -0.432426    -3.060644
C      0.723821     -0.870466    -4.416571
H     -0.170829     -1.438996    -4.682050
H      0.812532     -0.011701    -5.086631
H      1.617107     -1.490853    -4.483630
