%mem=1GB
%nprocs=1
#p opt=(nomicro,gdiis,loose,maxstep=20,notrust,gic) nosymm def2svpp
external='gaussian_xtb.py' iop(2/9=2000)

F(5,13); F(6,16);

0 1
 C                 -2.54590700   -1.47104800   -0.00757300
 C                 -2.85101300   -0.50630600   -0.96463100
 C                 -2.73967200    0.84597200   -0.65037000
 C                 -2.32576000    1.23290300    0.62181400
 C                 -2.02078900    0.26800600    1.57846600
 C                 -2.12957900   -1.08385100    1.26353200
 H                 -2.62942200   -2.52585700   -0.25359500
 H                 -3.17345700   -0.80826400   -1.95711500
 H                 -2.97393200    1.59863100   -1.39772700
 H                 -2.23924400    2.28795600    0.86646900
 H                 -1.69323400    0.56906300    2.56958200
 H                 -1.88481600   -1.83601800    2.00785800
 C                  1.26312788    0.07301354    0.14370141
 C                  1.32709464   -1.03194476    0.98865282
 C                  0.92605347   -2.28394659    0.52898835
 C                  0.46037101   -2.43298935   -0.77474918
 C                  0.39663038   -1.32716890   -1.61851618
 C                  0.79781330   -0.07487032   -1.16060036
 H                  1.57603304    1.04987042    0.50182949
 H                  1.68992173   -0.91674295    2.00630276
 H                  0.97570388   -3.14640306    1.18802978
 H                  0.14402951   -3.40730992   -1.13524514
 H                  0.03098462   -1.44747043   -2.63442575
 H                  0.74801111    0.78727750   -1.82001623

Refene: Auto
FixBond1: 5 13 3.19 3.04 2.89 2.74 2.58 2.43 2.28 2.13 1.98 1.82 1.67 1.52
FixBond2: 6 16 3.19 3.04 2.89 2.74 2.58 2.43 2.28 2.13 1.98 1.82 1.67 1.52

