%mem=1GB
%nprocs=1
#p freq nosymm external='sevennclient.py' iop(2/9=2000)

rxn_090_seven-prd--freq

0 1
 C                 -1.89992843    0.53764825    1.05230765
 C                 -0.87701977    1.39109349    1.30495058
 C                  0.08509350   -1.47000164    0.19189846
 C                 -0.09036874   -0.65871256   -0.88618534
 C                 -1.51487935   -0.24748803   -1.30430198
 C                 -2.36376806    0.29234895   -0.39580044
 H                  1.62686384   -0.98654055    1.58349198
 H                 -2.38875746    0.03514649    1.86223188
 H                 -0.52591541    1.52363684    2.30697752
 C                  1.48266657   -1.70206137    0.80335651
 C                  1.10823029   -0.15851189   -1.71614762
 H                 -1.83718727   -0.39249568   -2.31590448
 C                  2.39738156   -0.12088887   -0.87490731
 C                  2.58932948   -1.50469251   -0.24853436
 H                  1.25496771   -0.84393145   -2.52803349
 H                  3.21922365    0.11929720   -1.51681900
 H                  3.54006599   -1.57038319    0.23561233
 O                 -3.69624706    0.63611996   -0.78392436
 C                 -4.57101050    0.50681291    0.33804546
 H                 -4.24938732    1.16115896    1.11740834
 H                 -5.56730343    0.76389640    0.04805292
 H                 -4.55057634   -0.50100195    0.68824812
 H                  0.90369247    0.81900913   -2.09978322
 H                  2.53047250   -2.25021581   -1.01335289
 H                  1.54477372   -2.69097081    1.20602785
 C                 -1.13838867   -2.15753754    0.82514529
 H                 -0.96860156   -2.29406062    1.87233096
 H                 -2.00542665   -1.54651949    0.68165426
 H                 -1.29224746   -3.10943310    0.36212168
 C                  2.30765049    0.93113006    0.24810669
 H                  1.48637655    0.69835714    0.89309304
 C                  2.09519637    2.32584475   -0.36854370
 H                  1.18395991    2.33297511   -0.92844559
 H                  2.03992396    3.05645341    0.41165067
 H                  2.91351533    2.55794864   -1.01665169
 C                  3.61798523    0.92363302    1.05980714
 H                  4.43861252    1.15617041    0.41448587
 H                  3.55896693    1.65409647    1.84091351
 H                  3.76586330   -0.04528317    1.48861087
 H                 -0.42091890    1.93202787    0.50229126

Refene: Auto
FixBond1: 2 3 3.19 3.04 2.89 2.74 2.58 2.43 2.28 2.13 1.98 1.82 1.67 1.52



