%mem=8GB
%chk=rxn_0202.chk
%nprocshared=8
#p opt=nomicro nosymm def2svpp external='gaussian_xtb.py' iop(2/9=2000)

Title Card Required

0 1
 C                  0.87953233    2.34347546    0.19037910
 C                 -0.17669216    1.55535702   -0.33060282
 C                 -1.48124823    2.03537858   -0.21480623
 C                 -1.69779755    3.23740066    0.42219454
 C                 -0.64406616    3.98762292    0.94783759
 C                  0.65851068    3.55395614    0.83341444
 C                  0.43180115    0.39284885   -0.92031640
 H                 -2.31347715    1.48809550   -0.62715388
 H                 -2.70549844    3.61507169    0.51716653
 H                 -0.85550265    4.92403918    1.44254692
 H                  1.48224749    4.13370100    1.22433737
 C                  1.78520627    0.54341378   -0.74253031
 H                  2.57802449   -0.11552657   -1.04358730
 N                  2.05520547    1.70004870   -0.07442201
 H                  2.97034387    2.02683978    0.18483572
 C                 -0.16068418   -0.75076698   -1.57692797
 H                  0.55170859   -1.35741163   -2.12533057
 C                 -1.43410385   -1.12652854   -1.54410271
 H                 -2.18255468   -0.58966081   -0.99048117
 H                 -1.76933817   -2.00679486   -2.06588441
 C                  1.47374304   -3.60672919    0.78717557
 H                  2.53276957   -3.71837273    0.68277952
 H                  1.07036444   -2.70247142    1.19276599
 C                  0.64158384   -4.60667756    0.40746337
 H                  1.04496244   -5.51093533    0.00187294
 C                 -0.88262257   -4.44599434    0.55771563
 H                 -1.53463565   -5.23899177    0.25616295
 C                 -1.40095656   -3.30367575    1.07055590
 H                 -2.41287171   -3.27952980    1.41746322
 H                 -0.79621710   -2.42287939    1.12876209

Refene: Auto
FixBond1: 16 21 3.19 3.04 2.89 2.74 2.58 2.43 2.28 2.13 1.98 1.82 1.67 1.52
FixBond2: 18 28 3.19 3.04 2.89 2.74 2.58 2.43 2.28 2.13 1.98 1.82 1.67 1.52


