%mem=1GB
%nprocs=1
#p opt=(nomicro,gdiis,loose,modredundant,maxstep=20,notrust,gic) def2svpp external='Gaussian_xtb.py' iop(2/9=2000) nosymm

F(5,9); F(1,8); 

0 1
 C                 -1.81953578    0.93168691    0.73934077
 H                 -1.43807420    1.94405987    0.55140799
 H                 -2.86540814    0.73326948    0.49347701
 C                  0.23646684    0.21237376    1.47618290
 C                  1.08432609    0.77174284    0.59584081
 H                  0.75237061    1.09277037   -0.38578321
 H                  2.13340405    0.87711404    0.85491442
 C                 -0.43963267   -0.31090892   -2.54073892
 C                  0.75892396   -0.17416146   -2.49554426
 C                  2.19961074   -0.00231719   -2.44653487
 H                  2.47779154    1.04996618   -2.57500874
 H                  2.69178859   -0.57789146   -3.23765550
 C                 -1.87796826   -0.50121903   -2.58198919
 H                 -2.28141685   -0.24328908   -3.56757765
 H                 -2.37955972    0.12545593   -1.83607860
 H                 -2.13959363   -1.54436497   -2.37510287
 H                  2.60365825   -0.33895596   -1.48532502
 N                 -1.12540002   -0.01027276    1.23085503
 C                  0.77712508   -0.29728468    2.76644824
 H                  1.87158957   -0.12114506    2.89207082
 O                  0.11691926   -0.83806917    3.62208040

Refene: Auto
FixBond1: 5 9 3.19 3.04 2.89 2.74 2.58 2.43 2.28 2.13 1.98 1.82 1.67 1.52 0.00 
FixBond2: 1 8 0.00 0.00 3.04 2.89 2.74 2.58 2.43 2.28 2.13 1.98 1.82 1.67 1.52

