%mem=1GB
%nprocs=1
#p freq nosymm external='sevennclient.py' iop(2/9=2000)

rxn_088_seven-prd--freq

0 1
 C                  1.23895500   -0.28204400    0.60674100
 C                  1.26815500    1.00485500    1.43611700
 C                  0.06800100    1.08129300    2.38332000
 C                 -1.24650500    0.94361900    1.61120900
 C                 -1.27216600   -0.34803300    0.78965100
 H                  2.20444300    1.05240300    2.00112100
 H                  1.33634300   -1.15092900    1.26782000
 H                  2.07578100   -0.31738900   -0.09865900
 H                  0.13849600    0.27319800    3.12341200
 H                  0.08410000    2.02368300    2.94069500
 H                 -2.09741800    0.95540900    2.29970000
 H                 -1.37104500    1.80891000    0.94676800
 H                 -1.22431000   -1.21422100    1.45989100
 H                 -2.20062900   -0.43436300    0.21630200
 H                  1.26238100    1.87827300    0.77098300
 C                 -0.07734600   -0.43312400   -0.15619700
 O                 -0.08980100   -1.75206800   -0.77312000
 C                 -0.17708800    0.47505200   -1.38555900
 H                 -1.12815300    1.00873500   -1.46447100
 H                  0.63213800    1.20347600   -1.47112100
 N                 -0.08627900   -0.45437200   -2.52430300
 N                 -0.04986700   -1.61534100   -2.14873100

Refene: Auto
FixBond1: 17 22 1.37 1.51 1.64 1.78 1.92 2.06 2.19 2.33 2.47 2.60 2.74 2.88
FixBond2: 18 21 1.47 1.62 1.76 1.91 2.06 2.21 2.35 2.50 2.65 2.79 2.94 3.09

