%mem=1GB
%nprocs=1
#p opt=(nomicro,gdiis,loose,modredundant,maxstep=20,notrust,gic) def2svpp external='Gaussian_xtb.py' iop(2/9=2000) nosymm

F(5,8); F(1,11); 

0 1
 C            -2.206785000000      0.614727000000     -0.745930000000
 H            -2.767930000000      1.365413000000     -1.279414000000
 C            -1.942747000000     -0.702067000000     -0.925464000000
 H            -2.286359000000     -1.358718000000     -1.712090000000
 C            -0.927916000000     -0.099936000000      0.832417000000
 H            -0.355562000000     -0.006894000000      1.745274000000
 N            -1.118089000000     -1.148267000000      0.099118000000
 C             1.465523000000      1.003433000000     -0.981970000000
 H             1.985136000000      0.095388000000     -0.696625000000
 H             1.551055000000      1.870134000000     -0.334583000000
 C             0.740095000000      1.041488000000     -2.102783000000
 H             0.650663000000      0.171988000000     -2.748978000000
 C             0.027846000000      2.199016000000     -2.518028000000
 N            -0.569836000000      3.126311000000     -2.872665000000
 O            -1.561423000000      1.020950000000      0.391257000000

Refene: Auto
FixBond1: 5 8 3.19 3.04 2.89 2.74 2.58 2.43 2.28 2.13 1.98 1.82 1.67 1.52 0.00 0.00 0.00
FixBond2: 1 11 0.00 0.00 0.00 3.19 3.04 2.89 2.74 2.58 2.43 2.28 2.13 1.98 1.82 1.67 1.52

