%mem=8GB
%chk=rxn0318.chk
%nprocshared=8
#p opt=nomicro nosymm def2svpp external='gaussian_xtb.py' iop(2/9=2000)

Title Card Required

0 1
 C                  1.25504500   -0.94718000    0.00413500
 C                 -0.20776700   -0.94733300    0.00413500
 C                 -0.90191000    0.29815300    0.00413500
 C                 -0.19359000    1.45092900    0.00413500
 C                  1.23657100    1.45158100    0.00413500
 C                  1.94730700    0.30087700    0.00413500
 C                  1.69952300   -2.22808900    0.00413500
 C                  0.52646800   -3.14726200    0.00413500
 C                 -0.65743800   -2.23300300    0.00413500
 H                 -1.98237500    0.30074600    0.00413500
 H                 -0.70060300    2.40523900    0.00413500
 H                  1.74191500    2.40688300    0.00413500
 H                  3.02777300    0.30248100    0.00413500
 H                  2.71809000   -2.56857000    0.00413500
 H                  0.52472400   -3.80052200    0.88009500
 H                  0.52472400   -3.80052200   -0.87182500
 C                 -2.06314300   -2.72147200    0.00413500
 H                 -2.59808700   -2.35971900    0.88326600
 H                 -2.59808700   -2.35971900   -0.87499600
 H                 -2.09332300   -3.80873200    0.00413500

Refene: Auto
FixBond1: 7 15 0.00 2.14 2.03 1.93 1.82 1.71 1.60 1.50 1.39 1.28 1.18 1.07


