%mem=8GB
%chk=rxn0101.chk
%nprocshared=8
#p opt=nomicro nosymm def2svpp external='gaussian_xtb.py' iop(2/9=2000)

Title Card Required

0 1
 C                 -1.35580705   -3.64427769    0.97459906
 C                 -0.86454377   -4.39711040   -0.24501132
 C                  0.33082854   -3.71000777   -0.87329786
 C                  1.44384290   -3.51267557    0.13605945
 C                  0.95274973   -2.75912023    1.35531590
 C                 -0.24336988   -3.44478306    1.98349222
 H                 -0.58086347   -5.44127497    0.05097806
 H                 -1.69198174   -4.47338285   -0.99744809
 H                 -1.75671341   -2.64514034    0.65935738
 H                 -2.19801638   -4.21001052    1.45116514
 H                  1.84291695   -4.51255805    0.45121309
 H                  2.28705467   -2.94802103   -0.33996645
 H                  1.77999390   -2.68323815    2.10794787
 H                  0.67013754   -1.71477017    1.05878011
 H                  0.07054053   -4.44039792    2.39404943
 H                 -0.62061739   -2.83020021    2.84172767
 O                  0.39153345   -3.34980077   -2.07751395
 C                  0.02995744    3.04130570    1.13886763
 C                 -0.05750514    2.92642794   -0.24880122
 C                 -0.07325010    4.07215670   -1.04396123
 C                 -0.00270922    5.33355491   -0.45141160
 C                  0.08425263    5.44834095    0.93595959
 C                  0.10098476    4.30213591    1.73116015
 H                  0.04280555    2.13785996    1.76557613
 H                 -0.14155460    3.98167057   -2.13778172
 H                 -0.01519888    6.23677994   -1.07856781
 H                  0.13985335    6.44232950    1.40325987
 H                  0.16974358    4.39286493    2.82485549
 C                 -0.13481835    1.53414055   -0.90237486
 O                 -0.19936876    1.21913579   -2.08987941
 O                 -0.12767126    0.53387792    0.01459492
 O                 -0.19494117   -0.64244208   -0.58050678
 H                 -0.21819322   -0.51920529   -1.53227988

Refene: Auto
FixBond1: 3 32 2.98 2.84 2.70 2.56 2.41 2.27 2.13 1.99 1.85 1.70 1.56 1.42 0.00 0.00
FixBond2: 17 33 0.00 0.00 2.04 1.94 1.84 1.75 1.65 1.55 1.46 1.36 1.26 1.16 1.07 0.97

