%mem=1GB
%nprocs=1
#p opt=(nomicro,gdiis,loose,modredundant,maxstep=20,notrust,gic) def2svpp external='Gaussian_xtb.py' iop(2/9=2000) nosymm

F(1,3); 

0 1
 C            -0.941963000000      1.530002000000     -0.949115000000
 H            -1.039391000000      2.214643000000     -1.790852000000
 C            -0.951144000000     -1.529054000000     -0.875037000000
 H            -1.081901000000     -2.336858000000     -1.594984000000
 C            -1.881019000000     -1.468576000000      0.089216000000
 H            -2.638542000000     -2.254906000000      0.054672000000
 C            -2.053356000000     -0.555593000000      1.214815000000
 H            -2.290322000000     -1.033740000000      2.165660000000
 C            -2.092101000000      0.783269000000      1.165584000000
 H            -2.369220000000      1.320105000000      2.072903000000
 C            -1.921494000000      1.585844000000     -0.037431000000
 H            -2.694521000000      2.339168000000     -0.201297000000
 C             0.360970000000      0.772273000000     -0.930923000000
 C             0.349318000000     -0.788450000000     -1.044983000000
 C             1.240820000000      0.947228000000      0.374755000000
 C             1.348909000000     -1.168958000000      0.118931000000
 H             0.771100000000     -1.081816000000     -2.011381000000
 H             1.037214000000      1.845178000000      0.958471000000
 H             1.260806000000     -2.196485000000      0.474787000000
 O             0.936553000000     -0.237225000000      1.124459000000
 H             0.941036000000      1.159812000000     -1.774177000000
 C             2.725687000000     -0.649508000000     -0.260467000000
 H             3.528294000000     -1.239598000000     -0.685900000000
 C             2.665679000000      0.670693000000     -0.082942000000
 H             3.403452000000      1.422161000000     -0.337815000000

Refene: Auto
FixBond1: 1 3 0.00 3.04 2.89 2.74 2.58 2.43 2.28 2.13 1.98 1.82 1.67 1.52

