%mem=1GB
%nprocs=1
#p opt=(nomicro,gdiis,loose,modredundant,maxstep=20,notrust,gic) def2svpp external='Gaussian_xtb.py' iop(2/9=2000) nosymm

F(3,22); F(7,24); 

0 1
 C             0.330668000000     -0.060560000000      1.134128000000
 H             0.446653000000      0.155426000000      2.212486000000
 C            -0.095907000000     -1.515308000000      1.004023000000
 H             0.528694000000     -2.362235000000      1.261412000000
 C            -1.369108000000     -1.556023000000      0.580852000000
 H            -1.969261000000     -2.449196000000      0.429515000000
 C            -0.883761000000      0.684294000000      0.645083000000
 H            -0.918396000000      1.764084000000      0.575521000000
 C            -1.869269000000     -0.185636000000      0.354677000000
 C            -3.254879000000      0.115917000000     -0.110021000000
 H            -3.401569000000      1.189392000000     -0.253026000000
 H            -3.467502000000     -0.392448000000     -1.058702000000
 H            -3.997783000000     -0.240186000000      0.614243000000
 N             1.583858000000      0.339081000000      0.481719000000
 C             2.747341000000     -0.324036000000      1.063376000000
 H             2.755247000000     -0.156396000000      2.146216000000
 H             2.784231000000     -1.415695000000      0.886131000000
 H             3.662255000000      0.117570000000      0.653400000000
 C             1.511010000000      0.190262000000     -0.959756000000
 H             2.513740000000     -0.011728000000     -1.371369000000
 H             0.894772000000     -0.673966000000     -1.285651000000
 C             1.023650000000      1.405910000000     -1.718562000000
 H             0.883959000000      1.200226000000     -2.810101000000
 O             0.824329000000      2.505110000000     -1.266915000000

Refene: Auto
FixBond1: 3 22 3.19 3.04 2.89 2.74 2.58 2.43 2.28 2.13 1.98 1.82 1.67 1.52 0.00 0.00
FixBond2: 7 24 0.00 0.00 2.98 2.84 2.70 2.56 2.41 2.27 2.13 1.99 1.85 1.70 1.56 1.42

