%mem=1GB
%nprocs=1
#p freq nosymm def2svpp external='gaussian_orca.py' iop(2/9=2000)

IM-1

0 1
 C                  0.00692729   -3.63484533   -0.33677319
 C                  1.14617355   -2.95648350    0.42974892
 C                  1.28985394   -1.52140862   -0.10763266
 C                 -0.05505224   -0.76838146   -0.04989918
 C                 -1.24161314   -1.43343884   -0.10088006
 C                 -1.31249564   -2.96315747    0.08371235
 H                  2.02608870   -0.99758374    0.46548677
 H                  0.91595265   -2.95520804    1.47468754
 H                  2.06802653   -3.47632296    0.27209729
 H                  0.17619204   -3.52695916   -1.38777748
 H                 -0.04410064   -4.67533911   -0.09250112
 H                 -2.14504035   -0.88250919   -0.25961190
 H                 -1.48005825   -3.16433100    1.12118620
 H                 -2.11766438   -3.36360638   -0.49615313
 H                  1.59784113   -1.57160209   -1.13111910
 C                 -0.05505224    0.76838146    0.04989918
 C                 -1.24161314    1.43343884    0.10088006
 C                  1.28985394    1.52140862    0.10763266
 C                 -1.31249564    2.96315747   -0.08371235
 H                 -2.14504035    0.88250919    0.25961190
 C                  1.14617355    2.95648350   -0.42974892
 H                  1.59784113    1.57160209    1.13111910
 H                  2.02608870    0.99758374   -0.46548677
 C                  0.00692729    3.63484533    0.33677319
 H                 -2.11766438    3.36360638    0.49615313
 H                 -1.48005825    3.16433100   -1.12118620
 H                  2.06802653    3.47632296   -0.27209729
 H                  0.91595265    2.95520804   -1.47468754
 H                 -0.04410064    4.67533911    0.09250112
 H                  0.17619204    3.52695916    1.38777748

Refene: Auto
FixBond1: 5 17 2.74 2.58 2.43 2.28 2.13 1.98 1.82 1.67 1.52






