%mem=8GB
%chk=rxn_0215.chk
%nprocshared=8
#p opt=nomicro nosymm def2svpp external='gaussian_xtb.py' iop(2/9=2000)

Title Card Required

0 1
 C                  2.53839038    0.59464687   -0.97672829
 H                  1.76560601    1.31321911   -1.24984871
 H                  2.52063264   -0.22866444   -1.68672825
 H                  3.49987048    1.10276247   -1.04983419
 C                  2.31977977    0.10487089    0.41596684
 H                  2.31918191    0.87154777    1.18085424
 C                  2.13770717   -1.15901717    0.74891798
 H                  2.13254760   -1.94259202    0.00793133
 H                  1.98330951   -1.46395099    1.76991829
 C                 -1.34987211    0.42475550    0.17049563
 C                 -1.19143646    1.36436583    1.32270013
 H                 -0.21398693    1.84262416    1.27681504
 H                 -1.95077959    2.14289848    1.27051169
 H                 -1.28392931    0.82813640    2.26237605
 C                 -1.34688828    1.00890579   -1.20952090
 H                 -2.37208465    1.22652258   -1.50958986
 H                 -0.77146588    1.93036368   -1.24076395
 H                 -0.93986960    0.28878261   -1.91632629
 N                 -1.49093882   -0.81709500    0.45696542
 O                 -1.64904742   -1.70635206   -0.61905052
 H                 -1.70616392   -2.57233468   -0.19265745

Refene: Auto
FixBond1: 5 10 2.98 2.84 2.70 2.56 2.41 2.27 2.13 1.99 1.85 1.70 1.56 1.42
FixBond2: 7 21 2.25 2.14 2.03 1.93 1.82 1.71 1.60 1.50 1.39 1.28 1.18 1.07


