%mem=1GB
%nprocs=1
#p freq nosymm external='sevennclient.py' iop(2/9=2000)

rxn_063_seven-prd--freq

0 1
 C                  1.96721877   -0.16416360    3.10280491
 H                  1.95560793   -1.23334457    3.06258990
 H                  1.74596707    0.15770999    4.09897009
 H                  2.93521736    0.19292671    2.81931728
 C                  0.90917245    0.39745656    2.13496155
 H                  0.91945173    1.46659632    2.17660911
 H                 -0.05859014    0.03880974    2.41728761
 C                  1.22918663   -0.06350215    0.70083882
 H                  1.21927514   -1.13264869    0.65927642
 H                  2.19679267    0.29545957    0.41837636
 C                  0.17083663    0.49767452   -0.26692976
 H                  0.18069117    1.56681916   -0.22530482
 C                  0.49091852    0.03681473   -1.70106916
 H                  0.48107351   -1.03233012   -1.74269100
 H                  1.45851040    0.39585121   -1.98348509
 H                 -0.24443385    0.42671547   -2.37347850
 C                 -1.11799658   -1.49635284    0.56194243
 H                 -1.04677805   -1.55839946    1.62776518
 H                 -1.98825890   -2.02383106    0.23132146
 H                 -0.24684490   -1.93325956    0.12023295
 C                 -2.18490317    0.10669354   -1.05553064
 H                 -3.19384230    0.01242597   -0.71193867
 H                 -2.05407992    1.06166545   -1.52008841
 H                 -1.97597135   -0.66663792   -1.76490075
 C                 -1.75504837    0.81575221    1.31864861
 H                 -1.65223893    0.25791333    2.22592255
 H                 -1.19589238    1.72493727    1.39366274
 H                 -2.78753271    1.04443642    1.15561604
 N                 -1.22177801   -0.01905820    0.13953272
 O                  1.58215517   -0.00241366   -4.57183527
 H                  0.99077180    0.30866362   -5.26110781

Refene: Auto
FixBond1: 11 29 0.00 0.00 0.00 0.00 0.00 0.00 1.47 1.62 1.76 1.91 2.06 2.21 2.35 2.50 2.65 2.79 2.94 3.09
FixBond2: 15 30 2.25 2.14 2.03 1.93 1.82 1.71 1.60 1.50 1.39 1.28 1.18 1.07 0.00 0.00 0.00 0.00 0.00 0.00






