%mem=1GB
%nprocs=1
#p opt=(nomicro,gdiis,loose,modredundant,maxstep=20,notrust,gic) def2svpp external='Gaussian_xtb.py' iop(2/9=2000) nosymm

F(2,19); F(1,13); 

0 1
 C             1.697127000000     -0.900601000000      1.035295000000
 C             1.860935000000      0.265384000000      0.395898000000
 H             2.407457000000     -1.719481000000      0.954476000000
 H             2.711660000000      0.467066000000     -0.249535000000
 C            -0.312447000000      1.104314000000      1.371100000000
 H            -1.026075000000      1.920464000000      1.444792000000
 C            -0.471216000000     -0.060360000000      2.019654000000
 H            -1.325900000000     -0.263200000000      2.660048000000
 C             0.884300000000      1.363914000000      0.543303000000
 C             0.534084000000     -1.136945000000      1.919667000000
 O             1.074915000000      2.455361000000      0.015672000000
 O             0.426480000000     -2.177004000000      2.559471000000
 C            -1.523279000000     -2.040615000000     -0.365000000000
 H            -2.306244000000     -1.462657000000      0.116641000000
 H            -1.415761000000     -3.074451000000     -0.055278000000
 C            -0.717777000000     -1.521550000000     -1.294945000000
 H             0.061683000000     -2.139526000000     -1.736676000000
 C            -0.737106000000     -0.140480000000     -1.784987000000
 C            -1.688063000000      0.771487000000     -1.510332000000
 H            -2.543676000000      0.484039000000     -0.913767000000
 H            -1.649051000000      1.791314000000     -1.867742000000
 O             0.364972000000      0.087896000000     -2.556642000000
 C             0.472360000000      1.372620000000     -3.172858000000
 H            -0.392590000000      1.560994000000     -3.822940000000
 H             0.554573000000      2.165756000000     -2.420212000000
 H             1.384067000000      1.339284000000     -3.771335000000

Refene: Auto
FixBond1: 2 19 3.19 3.04 2.89 2.74 2.58 2.43 2.28 2.13 1.98 1.82 1.67 1.52 0.00 0.00
FixBond2: 1 13 0.00 0.00 3.19 3.04 2.89 2.74 2.58 2.43 2.28 2.13 1.98 1.82 1.67 1.52

