%mem=1GB
%nprocs=1
#p opt=(nomicro,gdiis,loose,modredundant,maxstep=20,notrust,gic) def2svpp external='Gaussian_xtb.py' iop(2/9=2000) nosymm

F(5,20); 

0 1
 C            -2.701264000000     -1.311910000000      0.663428000000
 C            -2.532884000000     -0.079963000000      1.164572000000
 C            -2.459560000000     -2.578967000000      1.348613000000
 H            -2.134721000000     -3.404233000000      0.713633000000
 C            -2.660283000000     -2.811176000000      2.650202000000
 H            -3.055156000000     -2.045850000000      3.313078000000
 H            -2.462795000000     -3.789869000000      3.076750000000
 C            -2.154655000000      0.259045000000      2.572161000000
 H            -2.826984000000      0.782234000000      0.569534000000
 H            -3.053154000000     -1.391502000000     -0.365176000000
 N            -0.875597000000      0.033377000000      2.987123000000
 C             0.160562000000     -0.576986000000      2.171925000000
 H             1.097317000000     -0.018601000000      2.293255000000
 H             0.336647000000     -1.620863000000      2.469036000000
 H            -0.124915000000     -0.558713000000      1.119872000000
 C            -0.534289000000      0.251938000000      4.385347000000
 H            -1.369745000000      0.748963000000      4.880080000000
 H            -0.334385000000     -0.706774000000      4.885852000000
 H             0.363681000000      0.877329000000      4.461925000000
 O            -3.015770000000      0.764298000000      3.292759000000

Refene: Auto
FixBond1: 5 20 2.98 2.84 2.70 2.56 2.41 2.27 2.13 1.99 1.85 1.70 1.56 1.42

