%mem=1GB
%nprocs=1
#p opt=(nomicro,gdiis,loose,modredundant,maxstep=20,notrust,gic) def2svpp external='Gaussian_xtb.py' iop(2/9=2000) nosymm

F(1,25); F(7,23); 

0 1
 C             1.817877000000     -2.584707000000      0.110665000000
 H             0.810059000000     -2.687383000000      0.504591000000
 H             2.452326000000     -3.465281000000      0.118771000000
 C             2.256301000000     -1.419944000000     -0.370394000000
 H             3.288022000000     -1.334866000000     -0.715225000000
 C             1.446411000000     -0.202616000000     -0.489981000000
 C             0.166755000000     -0.177857000000     -0.891228000000
 H            -0.282851000000     -1.127124000000     -1.168861000000
 O             2.101550000000      0.997684000000     -0.286389000000
 C             2.856974000000      1.080075000000      0.924496000000
 H             3.663211000000      0.336171000000      0.961230000000
 H             3.290857000000      2.082111000000      0.946401000000
 H             2.207145000000      0.941896000000      1.799788000000
 C            -0.657036000000      1.071011000000     -0.998306000000
 H            -0.049411000000      1.884392000000     -1.410240000000
 H            -1.486025000000      0.894314000000     -1.693374000000
 C            -1.226952000000      1.528887000000      0.357353000000
 H            -1.822695000000      2.439660000000      0.205007000000
 H            -0.394353000000      1.798188000000      1.019116000000
 C            -2.089791000000      0.461031000000      1.048262000000
 H            -2.436523000000      0.863556000000      2.011026000000
 H            -1.476276000000     -0.421196000000      1.271105000000
 C            -3.276192000000      0.056711000000      0.228946000000
 H            -3.962073000000      0.861244000000     -0.046377000000
 C            -3.533477000000     -1.180102000000     -0.187471000000
 H            -2.872079000000     -2.007419000000      0.062016000000
 H            -4.411332000000     -1.410348000000     -0.783788000000

Refene: Auto
FixBond1: 1 25 3.19 3.04 2.89 2.74 2.58 2.43 2.28 2.13 1.98 1.82 1.67 1.52
FixBond2: 7 23 3.19 3.04 2.89 2.74 2.58 2.43 2.28 2.13 1.98 1.82 1.67 1.52

