%mem=1GB
%nprocs=1
#p opt=(nomicro,gdiis,loose,modredundant,maxstep=20,notrust,gic) def2svpp external='Gaussian_xtb.py' iop(2/9=2000) nosymm

F(18,20); F(1,3); 

0 1
 C             1.999337000000     -0.075498000000     -0.037675000000
 C            -1.962119000000      0.173717000000     -0.012381000000
 C            -1.527103000000      1.002314000000      0.947752000000
 H            -0.584931000000      1.533947000000      0.857195000000
 H            -2.139004000000      1.189291000000      1.821101000000
 C            -3.271359000000     -0.547107000000      0.020878000000
 H            -3.834053000000     -0.302950000000      0.923409000000
 H            -3.868205000000     -0.276785000000     -0.857526000000
 H            -3.108794000000     -1.630240000000     -0.021393000000
 C             3.409485000000      0.208037000000      0.401662000000
 H             4.061724000000     -0.613763000000      0.081157000000
 H             3.764400000000      1.150322000000     -0.017434000000
 H             3.458611000000      0.234143000000      1.496965000000
 C             1.320711000000     -1.291368000000      0.539540000000
 H             2.016772000000     -1.962588000000      1.047641000000
 H             0.564668000000     -0.944176000000      1.257794000000
 H             0.776771000000     -1.822513000000     -0.246696000000
 O             1.420512000000      0.666078000000     -0.818115000000
 O            -1.269669000000     -0.122032000000     -1.143895000000
 H            -0.377223000000      0.281584000000     -1.102434000000

Refene: Auto
FixBond1: 18 20 0.00 0.00 1.84 1.75 1.65 1.55 1.46 1.36 1.26 1.16 1.07 0.97 0.00
FixBond2: 1 3 0.00 3.19 3.04 2.89 2.74 2.58 2.43 2.28 2.13 1.98 1.82 1.67 1.52

