%mem=8GB
%chk=rxn_0210.chk
%nprocshared=8
#p opt=nomicro nosymm def2svpp external='gaussian_xtb.py' iop(2/9=2000)

Title Card Required

0 1
 C                  0.56178625    0.28433185   -0.29716940
 C                 -1.47434709    0.97872628   -0.64321970
 H                 -2.39978946    1.52565128   -0.64488255
 N                 -0.43239522    1.30154339   -0.02405731
 O                 -1.44078333   -0.16500302   -1.38389487
 C                 -0.17594392   -0.67459673   -1.23283715
 O                  0.19811072   -1.67418686   -1.76178030
 C                  1.78578090    0.89087950   -0.98228478
 H                  2.26863832    1.58717797   -0.30251437
 H                  2.47991811    0.09798001   -1.24689553
 H                  1.49038976    1.42579288   -1.88241379
 C                  0.95392547   -0.41480059    1.02290952
 H                  0.76734382   -1.48242834    0.89703622
 H                  2.02751982   -0.27228870    1.18319649
 C                  0.19676870    0.12345673    2.19475570
 H                  0.30024402    1.18620441    2.36448310
 C                 -0.55220982   -0.61883286    2.98801962
 H                 -1.07303298   -0.20090763    3.83201206
 H                 -0.66764698   -1.67945162    2.83273799

Refene: Auto
FixBond1: 2 17 3.19 3.04 2.89 2.74 2.58 2.43 2.28 2.13 1.98 1.82 1.67 1.52


