%mem=1GB
%nprocs=1
#p opt=(nomicro,gdiis,loose,modredundant,maxstep=20,notrust,gic) def2svpp external='Gaussian_xtb.py' iop(2/9=2000) nosymm

F(2,18); F(3,15); 

0 1
 C            -1.355356000000      0.967944000000      0.837451000000
 C            -1.587452000000     -0.350207000000      0.924131000000
 C             1.052407000000      0.689602000000      1.054823000000
 C             0.010857000000      1.476893000000      0.749363000000
 H            -2.180522000000      1.674950000000      0.805082000000
 H            -2.604652000000     -0.733811000000      0.945914000000
 H             2.067221000000      1.080224000000      1.033881000000
 H             0.166898000000      2.511603000000      0.454672000000
 C             0.821355000000     -0.721632000000      1.526483000000
 H             0.719393000000     -0.705416000000      2.625349000000
 H             1.689404000000     -1.353469000000      1.308025000000
 C            -0.440009000000     -1.323722000000      0.898074000000
 H            -0.707665000000     -2.256521000000      1.406323000000
 H            -0.237761000000     -1.589232000000     -0.153746000000
 C            -0.015023000000     -0.000510000000     -2.718605000000
 H            -0.573731000000      0.426515000000     -1.889277000000
 H            -0.569061000000     -0.227380000000     -3.625987000000
 C             1.288053000000     -0.235727000000     -2.622749000000
 H             1.855064000000     -0.663617000000     -3.445553000000
 H             1.832940000000     -0.003360000000     -1.711153000000

Refene: Auto
FixBond1: 2 15 3.19 3.04 2.89 2.74 2.58 2.43 2.28 2.13 1.98 1.82 1.67 1.52
FixBond2: 3 18 3.19 3.04 2.89 2.74 2.58 2.43 2.28 2.13 1.98 1.82 1.67 1.52

