%mem=8GB
%chk=rxn_0212.chk
%nprocshared=8
#p opt=nomicro nosymm def2svpp external='gaussian_xtb.py' iop(2/9=2000)

Title Card Required

0 1
 C                 -0.43705428   -1.05743337   -0.12333800
 H                 -1.47018697   -0.97163349   -0.38824407
 N                  0.26728256   -1.84429517   -1.14591226
 C                  1.52431255   -2.36167512   -0.58636458
 H                  1.33467236   -2.80051732    0.37089930
 H                  1.92950694   -3.10197551   -1.24414330
 H                  2.22373898   -1.55912864   -0.47856010
 C                 -0.58013772   -2.96849460   -1.56894241
 H                 -0.05508844   -3.55923822   -2.29022267
 H                 -0.82059687   -3.57321725   -0.71959566
 H                 -1.48155737   -2.59132276   -2.00492870
 O                  0.53995530   -1.05353605   -2.21826929
 C                  0.18861231    0.34697387   -0.03512442
 H                 -0.23923183    0.87684371    0.79015574
 H                  1.24539203    0.25833789    0.10721422
 C                 -0.31365872   -1.76099624    1.24098338
 O                  1.05787140   -1.77982072    1.64527384
 H                  1.10986937   -1.89420782    2.59701530
 C                 -0.09091830    1.11633361   -1.33955847
 H                  0.80275075    1.16003080   -1.92636865
 H                 -0.85669302    0.61396448   -1.89283448
 C                 -0.55452106    2.54583767   -1.00312030
 H                 -1.49452175    2.50529453   -0.49355679
 C                 -0.71047691    3.35452867   -2.30438762
 H                 -1.00893741    4.35476141   -2.06910951
 H                  0.22351485    3.37439301   -2.82608177
 H                 -1.45436710    2.89631403   -2.92209850
 C                  0.49073034    3.22500189   -0.09880539
 H                  1.47324544    2.94427787   -0.41622955
 H                  0.38412280    4.28754295   -0.16619479
 C                  0.27532927    2.77893389    1.35935294
 H                 -0.68578651    2.31809688    1.45308499
 H                  1.03543097    2.07762518    1.63378235
 O                  0.34395907    3.91787614    2.22132771
 H                  0.41525605    3.62590392    3.13306723
 C                 -0.83376823   -3.20565523    1.12246541
 H                 -0.00513085   -3.87715628    1.03675412
 H                 -1.40389658   -3.45207969    1.99374530
 H                 -1.45365192   -3.29148584    0.25454992
 C                 -1.14718606   -0.99962730    2.28843242
 H                 -0.55214099   -0.22316729    2.72194276
 H                 -2.00603062   -0.56964986    1.81683362
 H                 -1.46252548   -1.67706190    3.05429364

Refene: Auto
FixBond1: 12 15 2.04 1.94 1.84 1.75 1.65 1.55 1.46 1.36 1.26 1.16 1.07 0.97 0.00 0.00 0.00
FixBond2: 1 3 0.00 0.00 0.00 0.00 0.00 0.00 1.47 1.62 1.76 1.91 2.06 2.21 2.35 2.50 2.65









