%mem=1GB
%nprocs=1
#p opt=(nomicro,gdiis,loose,modredundant,maxstep=20,notrust,gic) def2svpp external='Gaussian_xtb.py' iop(2/9=2000) nosymm

F(15,17); F(15,19); 

0 1
 C                 -4.87209761   -0.88955823   -0.06305790
 C                 -4.70436994    0.47619589    0.15290039
 C                 -3.42945920    1.02412634    0.18334719
 C                 -2.31472639    0.20052193    0.00542998
 C                 -2.48091009   -1.17164685   -0.20813145
 C                 -3.76073535   -1.70988748   -0.24416002
 H                 -5.87061749   -1.31627201   -0.08945525
 H                 -5.57027612    1.11560255    0.29578016
 H                 -3.27664556    2.08564494    0.34926095
 H                 -1.61506845   -1.81005586   -0.34578028
 H                 -3.89216103   -2.77437911   -0.41335265
 C                 -0.98477688    0.83866640    0.05835903
 O                 -0.76034792    2.03411496    0.10816438
 O                  0.01957924   -0.07408048    0.03109163
 O                  1.30364149    0.57255195    0.08614667
 H                  1.02267263    1.51906339    0.12190551
 C                  4.30729711   -1.11490408   -0.45550521
 H                  3.83508398   -1.75666547   -1.20008156
 C                  4.56717655    0.14510978   -0.81355869
 H                  4.28994108    0.44244563   -1.82563387
 C                  4.58102958   -1.76441264    0.86442537
 H                  3.65038523   -2.14068329    1.30838316
 H                  5.24217031   -2.63102113    0.73825339
 H                  5.04519075   -1.08816176    1.58555028
 C                  5.18869342    1.22162026    0.01907374
 H                  5.43565041    0.88953140    1.03015810
 H                  6.10970103    1.59044482   -0.44950773
 H                  4.50826352    2.07882644    0.09656386

Refene: Auto
FixBond1: 15 17 2.98 2.84 2.70 2.56 2.41 2.27 2.13 1.99 1.85 1.70 1.56 1.42
FixBond2: 15 19 2.98 2.84 2.70 2.56 2.41 2.27 2.13 1.99 1.85 1.70 1.56 1.42

