%mem=1GB
%nprocs=1
#p opt=(nomicro,gdiis,loose,modredundant,maxstep=20,notrust,gic) def2svpp external='Gaussian_xtb.py' iop(2/9=2000) nosymm

F(7,23); F(1,25); 

0 1
 C             1.126239000000     -1.683324000000      2.394937000000
 H             2.132497000000     -1.511760000000      2.022569000000
 H             0.982539000000     -2.495491000000      3.100148000000
 C             0.102533000000     -0.928471000000      1.993516000000
 H            -0.888717000000     -1.098909000000      2.415469000000
 C             0.190704000000      0.127259000000      0.979953000000
 C             0.914483000000      0.033790000000     -0.148367000000
 H             1.428035000000     -0.906020000000     -0.327771000000
 O            -0.625123000000      1.227326000000      1.143510000000
 C            -0.641510000000      1.799745000000      2.456173000000
 H            -1.300308000000      2.668621000000      2.399080000000
 H            -1.030623000000      1.100467000000      3.206182000000
 H             0.365483000000      2.119941000000      2.753463000000
 C             0.962958000000      1.102673000000     -1.198499000000
 H             1.001858000000      2.090924000000     -0.725429000000
 H             1.877464000000      0.984339000000     -1.792931000000
 C            -0.254974000000      1.064118000000     -2.141223000000
 H            -0.150163000000      1.846767000000     -2.902373000000
 H            -1.156940000000      1.301124000000     -1.561975000000
 C            -0.431640000000     -0.293638000000     -2.826715000000
 H             0.483887000000     -0.633283000000     -3.324848000000
 H            -1.209486000000     -0.201797000000     -3.601957000000
 C            -0.921560000000     -1.382055000000     -1.902868000000
 H            -1.726139000000     -1.061854000000     -1.196780000000
 O            -0.546856000000     -2.532293000000     -1.933358000000

Refene: Auto
FixBond1: 7 23 0.00 0.00 2.89 2.74 2.58 2.43 2.28 2.13 1.98 1.82 1.67 1.52 0.00 0.00 0.00
FixBond2: 1 25 0.00 0.00 0.00 2.98 2.84 2.70 2.56 2.41 2.27 2.13 1.99 1.85 1.70 1.56 1.42

