%mem=1GB
%nprocs=1
#p freq nosymm external='sevennclient.py' iop(2/9=2000)

rxn_063_seven-prd--freq

0 1
 C                  1.36962384    0.40196461    0.22250665
 C                  1.96207660    0.87058958   -1.09094654
 C                  2.41152918    2.31535134   -1.00609963
 C                  1.27953843    3.21764349   -0.55880745
 C                  0.68564929    2.74905399    0.75388470
 H                  2.83421820    0.22111968   -1.36281054
 H                  2.16975008    0.38959720    1.00864210
 H                  3.26366697    2.39874291   -0.28135561
 H                  2.78655656    2.65163913   -2.00745195
 H                  1.65794988    4.26678761   -0.44634739
 H                  0.48021002    3.23028050   -1.34581734
 H                  1.44962071    2.85623622    1.56825903
 H                 -0.18776870    3.39782791    1.02375368
 H                  1.19664299    0.76535280   -1.90409226
 C                  0.84985099   -1.03948000    0.06864427
 C                  1.38898495   -2.06242615    0.84927681
 C                 -0.15996284   -1.32237829   -0.85102564
 C                  0.91882045   -3.36806476    0.70972431
 H                  2.18562783   -1.83920277    1.57368914
 C                 -0.63106851   -2.62818981   -0.99004213
 H                 -0.58512082   -0.51622611   -1.46623973
 C                 -0.09178146   -3.65102458   -0.20996807
 H                  1.34415979   -4.17452422    1.32454630
 H                 -1.42755694   -2.85087313   -1.71495079
 C                 -0.61075583   -5.09276509   -0.36375328
 H                  0.01939385   -5.62813208   -1.04286562
 H                 -0.60182020   -5.57863908    0.58952874
 H                 -1.61042712   -5.07325248   -0.74477370
 N                  0.23788195    1.30415124    0.67057558
 C                 -2.13096390    1.86874528   -1.22299994
 O                 -2.11775357    0.63857614   -1.23143570
 O                 -2.74955792    2.48438597   -0.18389553
 H                 -1.70903372    2.58843103   -1.94472559
 H                 -3.11126234    1.82939566    0.43523167
 C                 -0.22930366    0.86830535    1.99446227
 H                  0.23076591   -0.06447886    2.24575814
 H                  0.03362653    1.60406739    2.72550395
 O                 -1.65002853    0.70762944    1.96948070
 H                 -2.01907808    0.98810983    2.81015494

Refene: Auto
FixBond1: 34 38 2.04 1.94 1.84 1.75 1.65 1.55 1.46 1.36 1.26 1.16 1.07 0.97 0.00 0.00 0.00 0.00 0.00
FixBond2: 35 38 0.00 0.00 0.00 0.00 0.00 1.42 1.56 1.70 1.85 1.99 2.13 2.27 2.41 2.56 2.70 2.84 2.98




