%mem=1GB
%nprocs=1
#p opt=(nomicro,gdiis,loose,modredundant,maxstep=20,notrust,gic) def2svpp external='Gaussian_xtb.py' iop(2/9=2000) nosymm

F(2,17); F(3,15); 

0 1
 C            -0.840416000000     -1.020818000000      0.680641000000
 C             0.357485000000     -1.115357000000      0.081407000000
 C            -0.755438000000      1.410703000000      0.751122000000
 C            -1.468298000000      0.282637000000      0.885443000000
 H            -1.373339000000     -1.914378000000      0.996160000000
 H             0.802909000000     -2.088623000000     -0.110989000000
 H            -1.211486000000      2.379606000000      0.941043000000
 H            -2.517614000000      0.319666000000      1.167866000000
 C             0.716418000000      1.345309000000      0.441414000000
 H             1.262655000000      1.304019000000      1.399432000000
 H             1.050902000000      2.259309000000     -0.061263000000
 C             1.066512000000      0.117961000000     -0.408020000000
 H             2.150700000000     -0.038780000000     -0.414915000000
 H             0.780825000000      0.285767000000     -1.460840000000
 C            -1.001978000000     -0.215833000000     -3.657776000000
 H            -1.154892000000      0.528562000000     -4.439009000000
 C            -0.104166000000     -1.193775000000     -3.835087000000
 H             0.454900000000     -1.259665000000     -4.759457000000
 H             0.064423000000     -1.957992000000     -3.080804000000
 N            -1.849562000000     -0.070929000000     -2.569995000000
 H            -1.575495000000     -0.580494000000     -1.739249000000
 H            -2.112953000000      0.877017000000     -2.348436000000

Refene: Auto
FixBond1: 2 17 3.19 3.04 2.89 2.74 2.58 2.43 2.28 2.13 1.98 1.82 1.67 1.52 0.00 0.00 0.00 0.00
FixBond2: 3 15 0.00 0.00 0.00 0.00 3.19 3.04 2.89 2.74 2.58 2.43 2.28 2.13 1.98 1.82 1.67 1.52

