%mem=1GB
%nprocs=1
#p freq nosymm external='sevennclient.py' iop(2/9=2000)

rxn_097_seven-prd--freq

0 1
 C                 -3.14785607   -1.08006145   -0.88155650
 C                 -2.09169989   -1.32013023   -0.00214048
 C                 -1.41825708   -0.25062404    0.58765020
 C                 -1.80013342    1.05972482    0.29718010
 C                 -2.85573777    1.29966784   -0.58240151
 C                 -3.52992269    0.22970623   -1.17152520
 H                 -3.67896633   -1.92342350   -1.34610487
 H                 -1.79122833   -2.35285476    0.22685440
 H                 -1.26896137    1.90283248    0.76228445
 H                 -3.15693455    2.33226294   -0.81153485
 H                 -4.36220110    0.41910144   -1.86475758
 C                 -0.25301184   -0.51552159    1.55905785
 C                  0.49692527    0.45616271    2.06053286
 H                 -0.09348452   -1.57444998    1.80278622
 H                  1.32794358    0.26724676    2.75328730
 H                  0.33739545    1.51509144    1.81680758
 O                  3.44284092   -0.35401523    0.25399071
 H                  3.13005104   -0.70943221    1.08912020
 O                  2.50253203    0.40043363   -0.28362078
 H                  2.81538632    0.75599054   -1.11866658
 O                  4.59326382    0.03983327   -1.45186587
 H                  5.21472567   -0.32322191   -2.08714226
 H                  4.81534101   -0.27270234   -0.57175041

Refene: Auto
FixBond1: 12 19 2.98 2.84 2.70 2.56 2.41 2.27 2.13 1.99 1.85 1.70 1.56 1.42 0.00 0.00 0.00 0.00 0.00
FixBond2: 13 19 2.98 2.84 2.70 2.56 2.41 2.27 2.13 1.99 1.85 1.70 1.56 1.42 0.00 0.00 0.00 0.00 0.00
FixBond3: 17 19 0.00 0.00 0.00 0.00 0.00 1.32 1.45 1.58 1.72 1.85 1.98 2.11 2.24 2.38 2.51 2.64 2.77

