%mem=8GB
%chk=rxn_0219.chk
%nprocshared=8
#p opt=nomicro nosymm def2svpp external='gaussian_xtb.py' iop(2/9=2000)

Title Card Required

0 1
 C                  4.03070300    0.37860300   -0.25547900
 C                  4.39130700    1.82090300   -0.24515100
 C                  3.33461800    2.58648400   -0.01445100
 C                  2.10078000    1.77687900    0.16580100
 H                  4.39072100   -0.17117500   -1.12670100
 H                  4.36046200   -0.14739600    0.64487900
 H                  5.39537000    2.15633900   -0.43376600
 H                  3.31844700    3.66110700    0.01969200
 H                  1.25444500    2.10106500   -0.44206400
 H                  1.77645200    1.72468100    1.20894700
 N                  2.51870100    0.38453200   -0.25026800
 N                  1.81070300   -0.51066600   -0.52241400

Refene: Auto
FixBond1: 1 11 1.47 1.62 1.76 1.91 2.06 2.21 2.35 2.50 2.65 2.79 2.94 3.09
FixBond2: 4 11 1.47 1.62 1.76 1.91 2.06 2.21 2.35 2.50 2.65 2.79 2.94 3.09

