%mem=1GB
%nprocs=1
#p freq nosymm external='sevennclient.py' iop(2/9=2000)

rxn_063_seven-prd--freq

0 1
 C                  0.18814610    0.25715794   -0.99417217
 C                  0.53571793   -0.09778047    0.44754568
 C                  0.68508763    1.11711745    1.32453252
 C                  0.17538150    2.30574131    0.99885546
 C                 -0.50089362    2.49753988   -0.28564202
 C                 -0.51269661    1.54122178   -1.22163258
 H                  1.47350283   -0.66075185    0.43097543
 H                  1.18329793    0.97787940    2.28059787
 H                  0.25558767    3.14948741    1.67706887
 H                 -0.96808192    3.45912689   -0.48181115
 H                 -0.95429657    1.68729026   -2.20135502
 O                  0.46257351   -0.48140361   -1.91716737
 C                  0.22328330   -3.08883217   -0.17309861
 H                  1.07079618   -2.60567834   -0.64501298
 H                  0.07811985   -4.14324275   -0.38756981
 C                 -0.62805962   -2.44211346    0.61099996
 C                 -0.56574833   -1.00429572    1.05805016
 H                 -1.46900651   -2.99378089    1.03131084
 H                 -1.54088203   -0.52799734    0.89283167
 H                 -0.43093527   -1.00564321    2.14767287

Refene: Auto
FixBond1 7 12 2.04 1.94 1.84 1.75 1.65 1.55 1.46 1.36 1.26 1.16 1.07 0.97

