%mem=1GB
%nprocs=1
#p opt=(nomicro,gdiis,loose,modredundant,maxstep=20,notrust,gic) def2svpp external='Gaussian_xtb.py' iop(2/9=2000) nosymm

F(2,19); F(6,18); 

0 1
 C            -0.249751000000      0.043279000000     -0.042957000000
 C            -0.917699000000     -0.711668000000     -1.167510000000
 H            -0.782295000000     -0.456489000000     -2.213096000000
 C            -1.668163000000     -1.709342000000     -0.668751000000
 H            -2.259594000000     -2.416087000000     -1.241222000000
 C            -0.760784000000     -0.692818000000      1.172670000000
 H            -0.487389000000     -0.420908000000      2.186579000000
 C            -1.570125000000     -1.697501000000      0.794635000000
 H            -2.079165000000     -2.394289000000      1.452181000000
 C            -0.682814000000      1.521662000000     -0.025639000000
 H            -0.235861000000      2.040710000000      0.829196000000
 H            -0.355512000000      2.026557000000     -0.941001000000
 H            -1.770932000000      1.606430000000      0.047293000000
 C             1.285051000000     -0.058623000000     -0.145248000000
 H             1.639725000000      0.424947000000     -1.061958000000
 H             1.758782000000      0.438650000000      0.708159000000
 H             1.601795000000     -1.105780000000     -0.158416000000
 N            -4.493741000000      0.204483000000      0.774788000000
 N            -4.568840000000      0.173803000000     -0.316839000000

Refene: Auto
FixBond1: 2 19 3.09 2.94 2.79 2.65 2.50 2.35 2.21 2.06 1.91 1.76 1.62 1.47
FixBond2: 6 18 3.09 2.94 2.79 2.65 2.50 2.35 2.21 2.06 1.91 1.76 1.62 1.47

