%mem=1GB
%nprocs=1
#p freq nosymm external='sevennclient.py' iop(2/9=2000)

rxn_063_seven-prd--freq

0 1
 C                  0.67417593    0.80524741   -1.20247943
 C                  0.46590438    1.19215799   -2.65254567
 C                  0.61541242    2.68738189   -2.84874963
 C                 -0.31475021    3.45742591   -1.93363535
 C                 -0.10808061    3.07024046   -0.48352631
 H                  1.20851749    0.65267093   -3.29584314
 H                  1.73795081    1.01024579   -0.91140804
 H                  1.67617873    2.98656713   -2.63991980
 H                  0.39490355    2.95025112   -3.91585651
 H                 -0.13729016    4.55730014   -2.05745171
 H                 -1.37830964    3.25270418   -2.22586902
 H                  0.91528046    3.39055353   -0.15416698
 H                 -0.85260729    3.60860714    0.15868642
 H                 -0.55849687    0.87368486   -2.98018311
 C                  0.43078556   -0.70579611   -1.03186700
 C                  1.46147017   -1.53201406   -0.58295214
 C                 -0.82005699   -1.24840139   -1.32601080
 C                  1.24146907   -2.90062139   -0.42888969
 H                  2.44771973   -1.10404600   -0.35187441
 C                 -1.04057649   -2.61725376   -1.17101335
 H                 -1.63256091   -0.59732986   -1.67966639
 C                 -0.01004838   -3.44340825   -0.72266349
 H                  2.05400025   -3.55201539   -0.07565401
 H                 -2.02703376   -3.04473000   -1.40261722
 C                 -0.25266042   -4.95461251   -0.55236644
 H                  0.06622676   -5.46872450   -1.43491946
 H                  0.30286869   -5.31242347    0.28921464
 H                 -1.29564480   -5.13268168   -0.39307127
 N                 -0.25538241    1.57532104   -0.28680804
 H                  0.15379299    1.45397844    0.61754336
 C                 -2.66065260    0.60637978    1.19448994
 O                 -2.20639510    0.51259710    2.33078301
 H                 -2.71754791   -0.26294843    0.50590664
 H                 -3.04205395    1.56621125    0.78660253
 C                  1.44232294    0.76068955    3.79271989
 O                  1.41990256    0.84552936    2.56558447
 O                  0.27270746    0.49296726    4.42654509
 H                  2.28454706    0.86927047    4.49680034
 H                 -0.45077227    0.40236426    3.78503979

Refene: Auto
FixBond1: 29 31 0.00 2.94 2.79 2.65 2.50 2.35 2.21 2.06 1.91 1.76 1.62 1.47
FixBond2: 32 39 2.04 1.94 1.84 1.75 1.65 1.55 1.46 1.36 1.26 1.16 1.07 0.97



