%mem=1GB
%nprocs=1
#p freq nosymm def2svpp external='gaussian_orca.py' iop(2/9=2000)

IM-1

0 1
 C                 -0.71574710    0.74638681    0.19539819
 C                  0.30406427    1.42478037   -0.67380276
 H                 -0.24150258    0.48927642    1.15374912
 H                 -0.09060728    2.09038766   -1.44209369
 C                  1.63037543    1.35590124   -0.50277871
 C                  2.28637941    0.49800326    0.46480701
 H                  2.27061162    2.00476981   -1.10030597
 H                  3.12677151    0.92407984    1.01259010
 C                  2.00393433   -0.80403252    0.67701369
 C                  1.14040048   -1.68628629   -0.10251680
 H                  2.63254907   -1.32758541    1.39794847
 H                  1.62720499   -2.64453145   -0.29854150
 C                 -0.09061080   -1.57938751   -0.63156863
 C                 -1.18907948   -0.56727590   -0.45047032
 H                 -0.40556188   -2.44058148   -1.22131895
 H                 -1.59599420   -0.33172865   -1.44727638
 C                 -1.87054832    1.72617480    0.47477185
 H                 -2.60699685    1.63870000   -0.29652039
 H                 -2.31473423    1.49370899    1.42005409
 H                 -1.49227540    2.72687694    0.49489202
 C                 -2.34462196   -1.20715212    0.34128722
 H                 -3.25293127   -0.68056089    0.13494802
 H                 -2.45212051   -2.23124950    0.05048037
 H                 -2.13169065   -1.15423509    1.38855034

Refene: Auto
FixBond1: 1 14 1.67 1.82 1.98 2.13 2.28 2.43 2.58 2.74 2.89 3.04 3.19




