%mem=1GB
%nprocs=1
#p opt=(nomicro,gdiis,loose,maxstep=20,notrust,gic) nosymm def2svpp
external='gaussian_xtb.py' iop(2/9=2000)

F(8,27); F(1,25);

0 1
 C                 -0.16981634    0.57662067   -0.60078269
 C                  1.10720172    1.11255031   -0.43203519
 C                  1.25957045    2.42174180    0.02406035
 C                  0.13457000    3.19604103    0.31050626
 C                 -1.14211672    2.66033109    0.14132322
 C                 -1.29434608    1.35039405   -0.31398001
 H                  1.99356817    0.50200748   -0.65749864
 H                  2.26610636    2.84402675    0.15769188
 H                  0.25495489    4.22828608    0.67005314
 H                 -2.02894674    3.27031844    0.36698263
 H                 -2.30091195    0.92821503   -0.44709295
 O                 -0.32574905   -0.76591625   -1.06787968
 C                 -0.36000328   -1.65881543    0.04856902
 C                 -1.54468727   -1.29326540    0.96207710
 H                 -1.24335632   -0.52992501    1.64867094
 H                 -2.35791210   -0.93572763    0.36564427
 H                 -1.85591764   -2.16015764    1.50662599
 C                 -0.52724667   -3.10443762   -0.45522273
 H                  0.27599254   -3.34576485   -1.11965328
 H                 -0.51518763   -3.77604135    0.37766562
 H                 -1.45874648   -3.19593204   -0.97371754
 C                  0.95503502   -1.54032659    0.84118158
 C                  2.14681452   -1.57139235    0.26088014
 H                  0.82576028   -1.42803378    1.92601346
 H                  3.08464784   -1.48690972    0.82614180
 H                  2.27608916   -1.68368118   -0.82395216

Refene: Auto
FixBond1: 2 23 0.00 0.00 2.89 2.74 2.58 2.43 2.28 2.13 1.98 1.82 1.67 1.52 0.00 0.00 0.00 0.00 0.00 0.00
FixBond2: 12 13 0.00 0.00 0.00 0.00 0.00 0.00 1.42 1.56 1.70 1.85 1.99 2.13 2.27 2.41 2.56 2.70 2.84 2.98

