%mem=1GB
%nprocs=1
#p opt=(nomicro,gdiis,loose,modredundant,maxstep=20,notrust,gic) def2svpp external='Gaussian_xtb.py' iop(2/9=2000) nosymm

F(5,10); F(1,13); 

0 1
 C                  1.40255900   -2.49701600   -0.17117700
 H                  2.43039500   -2.53503100    0.15685300
 C                  0.59794300   -3.40430000   -0.81294800
 H                  0.84782400   -4.40969200   -1.12363000
 C                 -0.60378800   -1.65526100   -0.53185400
 H                 -1.41454200   -0.93734500   -0.52444100
 N                  0.61628900   -1.38427600    0.01594100
 H                  0.92440300   -0.48257200    0.35508200
 N                 -0.65222300   -2.87179400   -1.03520400
 C                  0.62474378   -0.67041251   -3.45668475
 H                  0.34634797   -1.47505406   -4.12502626
 H                 -0.03936334    0.18191730   -3.35281657
 C                  1.80461794   -0.71207972   -2.83420629
 H                  2.48877971   -1.55680867   -2.94381847
 O                  2.23014419    0.28806913   -2.02701711
 C                  3.39832125   -0.01399371   -1.24888482
 H                  4.23412074   -0.29941213   -1.90069585
 H                  3.65271349    0.90086789   -0.71233193
 H                  3.19190811   -0.81339599   -0.52657851

Refene: Auto
FixBond1: 5 10 3.19 3.04 2.89 2.74 2.58 2.43 2.28 2.13 1.98 1.82 1.67 1.52 0.00 0.00 0.00 0.00
FixBond2: 1 13 0.00 0.00 0.00 0.00 3.19 3.04 2.89 2.74 2.58 2.43 2.28 2.13 1.98 1.82 1.67 1.52

