%mem=8GB
%nprocshared=8
#p opt=nomicro nosymm def2svpp external='gaussian_xtb.py' iop(2/9=2000)

Title Card Required

0 1
 C                 -2.13456354   -1.07635893    0.19398025
 H                 -2.68139811   -0.83737001    1.08209976
 H                 -2.01481580   -0.19406775   -0.39941907
 H                 -2.67000726   -1.81355599   -0.36703715
 C                 -0.74923864   -1.62915162    0.57724928
 H                 -0.47744745   -1.71849172    1.60829142
 C                  0.12679381   -2.00284458   -0.38685018
 H                 -0.13932469   -1.91583302   -1.41956986
 C                  1.51004455   -2.55462110    0.00527232
 H                  2.06178505   -2.79552770   -0.87928770
 H                  2.04231490   -1.81611235    0.56758282
 H                  1.38712307   -3.43560032    0.59997050
 C                  0.46012295    1.70054554   -0.13061502
 O                  1.41530378    0.95931507   -0.34159845
 C                 -0.65007530    1.92651907   -1.17368540
 H                 -1.11957906    0.99273637   -1.40284931
 H                 -1.37786374    2.60424082   -0.77882187
 H                 -0.22415425    2.33958753   -2.06411547
 C                  0.29212860    2.46652624    1.19477227
 H                  0.27184790    3.51823290    0.99880851
 H                 -0.62438036    2.17314706    1.66257563
 H                  1.11219499    2.24040589    1.84381826

Refene: Auto
FixBond1: 5 13 3.19 3.04 2.89 2.74 2.58 2.43 2.28 2.13 1.98 1.82 1.67 1.52
FixBond2: 7 14 2.98 2.84 2.70 2.56 2.41 2.27 2.13 1.99 1.85 1.70 1.56 1.42




