%mem=1GB
%nprocs=1
#p opt=(nomicro,gdiis,loose,modredundant,maxstep=20,notrust,gic) def2svpp external='Gaussian_xtb.py' iop(2/9=2000) nosymm

F(2,15); F(3,17); 

0 1
 C            -1.503990000000     -0.422788000000      0.673585000000
 C            -0.528805000000     -1.337081000000      0.796525000000
 C            -0.011460000000      1.427652000000      1.191381000000
 C            -1.195671000000      1.004167000000      0.726281000000
 H            -2.532921000000     -0.731166000000      0.504987000000
 H            -0.750314000000     -2.398098000000      0.709694000000
 H             0.207490000000      2.490035000000      1.264050000000
 H            -1.949535000000      1.715928000000      0.399600000000
 C             0.996712000000      0.436706000000      1.708849000000
 H             0.804153000000      0.281529000000      2.784361000000
 H             2.012916000000      0.838187000000      1.633313000000
 C             0.901442000000     -0.901585000000      0.968454000000
 H             1.480043000000     -1.668315000000      1.494968000000
 H             1.359299000000     -0.806773000000     -0.031936000000
 C             0.171917000000     -0.122793000000     -2.593699000000
 H            -0.430048000000     -0.185813000000     -1.714276000000
 C             0.855715000000     -0.058509000000     -3.579897000000
 H             1.457982000000      0.000672000000     -4.454607000000

Refene: Auto
FixBond1: 2 15 3.19 3.04 2.89 2.74 2.58 2.43 2.28 2.13 1.98 1.82 1.67 1.52
FixBond2: 3 17 3.19 3.04 2.89 2.74 2.58 2.43 2.28 2.13 1.98 1.82 1.67 1.52

