%mem=8GB
%chk=rxn0101.chk
%nprocshared=8
#p opt=nomicro nosymm def2svpp external='gaussian_xtb.py' iop(2/9=2000)

Title Card Required

0 1
 C                 -0.99236200   -0.19776300    0.51208400
 C                  0.42145100   -0.33719400    0.46108500
 C                  1.14171600    0.68896000   -0.03890500
 C                 -0.77264800    2.00308900   -0.49605500
 C                 -1.57038900    0.93864400    0.05785000
 H                 -1.59144300   -1.00413900    0.90744700
 H                  0.90456900   -1.23441800    0.80480500
 H                  2.21813100    0.69187400   -0.13470400
 H                 -2.63662300    1.09447800    0.05333700
 O                 -1.18693400    3.02843700   -0.99269300
 O                  0.59374900    1.81681900   -0.48636800
 C                  0.59850200    1.48187200   -3.30158100
 C                  0.39596900    2.89929300   -3.68748800
 C                 -0.91207800    3.14582700   -3.67843400
 C                 -1.61558600    1.88959600   -3.31086700
 O                 -0.64300900    0.93170200   -3.09602200
 H                  1.21942400    3.55528600   -3.89273300
 H                 -1.44642300    4.05511900   -3.87113500
 O                 -2.77548500    1.64702800   -3.22448200
 O                  1.60657100    0.85956400   -3.16440200

Refene: Auto
FixBond1: 3 13 3.19 3.04 2.89 2.74 2.58 2.43 2.28 2.13 1.98 1.82 1.67 1.52
FixBond2: 5 14 3.19 3.04 2.89 2.74 2.58 2.43 2.28 2.13 1.98 1.82 1.67 1.52

