%mem=1GB
%nprocs=1
#p opt=(nomicro,gdiis,loose,maxstep=20,notrust,gic) nosymm def2svpp
external='gaussian_xtb.py' iop(2/9=2000)

F(1,15); F(7,14);

0 1
 C            -0.980719520000      1.315859660000      0.373719840000
 H            -1.623786230000      0.786061570000     -0.319990750000
 H            -1.005759310000      2.402032270000      0.359239230000
 C            -0.185316160000      0.668074270000      1.229108460000
 C            -0.149001250000     -0.826214980000      1.226633820000
 C             0.618025620000      0.159209950000     -2.567637490000
 H             1.711187650000      0.133806690000     -2.585432480000
 C            -0.041126820000      1.251065830000     -2.172922990000
 H            -1.124971500000      1.271821430000     -2.154374030000
 H             0.508356240000      2.130583440000     -1.864217450000
 O            -0.006302940000     -0.967812810000     -2.965193140000
 H             0.670947420000     -1.658754650000     -3.214534580000
 C             0.686455450000      1.395450700000      2.222204010000
 H             0.241589860000      1.406691350000      3.226352110000
 H             1.676007440000      0.934008880000      2.301187510000
 H             0.819826440000      2.435782520000      1.916301410000
 N             0.198217630000     -1.390484800000      2.438260790000
 H             0.059709150000     -2.383920220000      2.542939170000
 H             0.010066750000     -0.854965220000      3.269295210000
 N            -0.374276390000     -1.487652970000      0.144764890000
 H            -0.350242890000     -2.494353780000      0.296966110000

Refene: Auto
FixBond1: 1 8 0.0 0.0 0.0 2.51 2.28 2.13 1.98 1.82 1.67 1.52
FixBond2: 6 20 3.23 2.94 2.65 2.43 2.21 2.06 1.91 1.76 1.62 1.47


