%mem=8GB
%chk=rxn_0212.chk
%nprocshared=8
#p opt=nomicro nosymm def2svpp external='gaussian_xtb.py' iop(2/9=2000)

Title Card Required

0 1
 C                  0.29942011    0.09163328   -0.75442206
 C                  0.68934691    0.14781211    0.58396221
 C                  0.50596994    1.32118030    1.31526359
 C                 -0.06649198    2.43946473    0.70785611
 C                 -0.45586597    2.38337625   -0.63034380
 C                 -0.27326807    1.20926043   -1.36145249
 H                  1.14010803   -0.73371953    1.06245794
 H                  0.81271392    1.36533728    2.37037250
 H                 -0.21092487    3.36453189    1.28464569
 H                 -0.90705458    3.26454919   -1.10933997
 H                 -0.58048524    1.16521296   -2.41634891
 O                  0.48701908   -1.11173181   -1.50383455
 C                  0.10179686   -2.23510781   -0.70726051
 H                  1.02912318   -2.71780670   -0.31345443
 H                 -0.41966910   -2.96915217   -1.36851278
 C                 -0.81601482   -1.79441697    0.44816724
 C                 -0.39984454   -1.71802053    1.70475752
 H                 -1.84317689   -1.54856602    0.14704064
 H                 -1.05439635   -1.40375548    2.52876527
 H                  0.62731861   -1.96386768    2.00588352

Refene: Auto
FixBond1: 2 17 2.43 2.28 2.13 1.98 1.82 1.67 1.52 0.00 0.00 0.00 0.00
FixBond2: 12 13 0.00 0.00 1.32 1.45 1.58 1.72 1.85 1.98 2.11 2.24 2.38



