%mem=1GB
%nprocs=1
#p opt=(nomicro,gdiis,loose,modredundant,maxstep=20,notrust,gic) def2svpp external='Gaussian_xtb.py' iop(2/9=2000) nosymm

F(11,14); 

0 1
 C             0.498864000000      0.368560000000     -0.099755000000
 C             1.844295000000      0.354069000000     -0.213314000000
 C             0.457370000000      2.773391000000      0.242775000000
 C            -0.205307000000      1.598749000000      0.176886000000
 H            -0.067534000000     -0.553793000000     -0.191046000000
 H             2.377701000000     -0.578844000000     -0.376310000000
 H            -0.078599000000      3.704833000000      0.405775000000
 H            -1.283336000000      1.571029000000      0.307121000000
 C             1.890582000000      2.850408000000      0.012029000000
 C             2.634176000000      1.561380000000     -0.035157000000
 C             3.969534000000      1.475569000000      0.149596000000
 H             4.573847000000      2.340083000000      0.401512000000
 H             4.475172000000      0.517769000000      0.075905000000
 C             2.475906000000      4.045858000000     -0.218112000000
 H             1.901353000000      4.963852000000     -0.142820000000
 H             3.517083000000      4.132000000000     -0.508934000000

Refene: Auto
FixBond1: 11 14 0.00 0.00 2.89 2.74 2.58 2.43 2.28 2.13 1.98 1.82 1.67 1.52

