%mem=1GB
%nprocs=1
#p opt=(nomicro,gdiis,maxstep=20,notrust) freq nosymm
external='sevennclient.py' iop(2/9=2000)

Title Card Required

0 1
 C                 -0.13683403    0.05871000    2.27264828
 O                 -0.50866085    0.53120430    3.34598688
 O                  1.10313409   -0.49026451    2.22248805
 H                 -0.65926565    0.00175875    1.30276048
 H                  1.30882300   -0.78827189    1.32135291
 C                 -0.49593749   -0.13928178   -1.38174752
 C                 -0.76941524    1.36477090   -1.56785361
 H                 -0.36841163    1.68677293   -2.50615569
 H                 -1.82484944    1.54001046   -1.55205009
 H                 -0.30499831    1.91255248   -0.77466243
 C                 -1.74427069   -1.02603356   -1.21762717
 H                 -2.29501193   -0.71069334   -0.35614900
 H                 -2.36126976   -0.93783114   -2.08735844
 H                 -1.44387839   -2.04569571   -1.09534244
 N                  0.70269050   -0.62548193   -1.36438866
 C                  1.81585810    0.14268012   -1.94030960
 H                  2.44721602    0.49998510   -1.15378539
 H                  2.38248368   -0.48642480   -2.59457443
 H                  1.42813910    0.97361822   -2.49177661

Refene: Auto
FixBond1: 4 6 2.25 2.14 2.03 1.93 1.82 1.71 1.60 1.50 1.39 1.28 1.18 1.07
FixBond2: 5 15 2.14 2.04 1.94 1.84 1.73 1.63 1.53 1.43 1.33 1.22 1.12 1.02


