%mem=1GB
%nprocs=1
#p freq nosymm external='sevennclient.py' iop(2/9=2000)

rxn_090_seven-prd--freq

0 1
 C                 -0.61216820   -0.23692767   -0.35019870
 C                 -1.00848628   -0.21537753    0.98615868
 C                 -1.43162652    0.36111325   -1.30449809
 C                 -2.19792903    0.39865438    1.35579830
 H                 -0.38203400   -0.68071601    1.73931606
 C                 -2.62265992    0.97419082   -0.93643379
 H                 -1.13665231    0.34368579   -2.35050639
 C                 -3.00898326    0.99645842    0.39767364
 H                 -2.49381762    0.40979791    2.40047482
 H                 -3.24989886    1.43441375   -1.69371166
 H                 -3.93778435    1.47528376    0.69078291
 C                  0.69975249   -0.84980143   -0.79573764
 C                  2.15588434    0.84688998    0.51415311
 H                  1.27364813    1.39924266    0.85381603
 H                  2.35335337    0.07856848    1.26874325
 C                  3.34965521    1.79644062    0.41399251
 H                  3.55568746    2.27639500    1.37546508
 H                  4.25488755    1.26188581    0.10632496
 H                  3.16385553    2.58644700   -0.32170357
 C                  1.84976005    0.17436879   -0.82469146
 H                  1.58969558    0.93817508   -1.56707470
 H                  2.74590305   -0.33649594   -1.19884615
 N                  1.09003245   -1.93313383    0.12907890
 N                  0.21137925   -2.78029499    0.27228797
 H                 -0.46503287   -2.40389836    0.95232505
 H                  0.57911414   -1.26484091   -1.80227320

Refene: Auto
FixBond1: 2 25 2.25 2.14 2.03 1.93 1.82 1.71 1.60 1.50 1.39 1.28 1.18 1.07 0.00 0.00 0.00 0.00 0.00 0.00
FixBond2: 12 23 0.00 0.00 0.00 0.00 0.00 0.00 1.47 1.62 1.76 1.91 2.06 2.21 2.35 2.50 2.65 2.79 2.94 3.09

