%mem=8GB
%chk=rxn_0204.chk
%nprocshared=8
#p opt=nomicro nosymm def2svpp external='gaussian_xtb.py' iop(2/9=2000)

Title Card Required

0 1
 C                 -0.51603551    3.75774829   -0.01152383
 C                  0.65538796    2.82586428    1.46960923
 C                 -0.54392334    2.18988158    1.42315536
 O                 -1.29390004    2.78886398    0.47540145
 H                 -0.88603950    4.38885845   -0.79434874
 H                  1.50802149    2.64302949    2.08842440
 H                 -0.96491535    1.36544714    1.95854383
 N                  0.64927365    3.82721316    0.54133267
 C                  0.50291610    0.42344237   -1.32609830
 H                  0.84761128    0.62140123   -0.31768654
 C                  0.69630591    1.26600047   -2.32696502
 H                  1.21486107    2.19219400   -2.17071984
 H                  0.33310755    1.05329871   -3.31648200
 O                 -0.22469594   -0.71801550   -1.49300167
 C                 -0.07050867   -1.74827641   -0.61052037
 C                 -1.14088700   -2.63266070   -0.49032583
 C                  1.09181700   -1.97139430    0.11955985
 C                 -1.05350362   -3.71207059    0.36571608
 H                 -2.03049155   -2.45112423   -1.07355461
 C                  1.16488444   -3.05475348    0.97708935
 H                  1.93821888   -1.31086463    0.00944832
 C                  0.09700564   -3.92412974    1.10863256
 H                 -1.88982478   -4.38947937    0.45593336
 H                  2.07036206   -3.22136659    1.54163068
 H                  0.16218774   -4.76658478    1.78030960

Refene: Auto
FixBond1: 1 11 3.19 3.04 2.89 2.74 2.58 2.43 2.28 2.13 1.98 1.82 1.67 1.52
FixBond2: 3 9 3.19 3.04 2.89 2.74 2.58 2.43 2.28 2.13 1.98 1.82 1.67 1.52


