%mem=1GB
%nprocs=1
#p freq nosymm external='sevennclient.py' iop(2/9=2000)

rxn_063_seven-prd--freq

0 1
 C                  1.09553500   -0.85089600    0.93249500
 C                  1.30943700    0.62655000    1.29450500
 C                  0.23931900    1.13015600    2.26659800
 C                 -1.16488400    0.91920200    1.69487200
 C                 -1.41478000   -0.55802200    1.35658500
 H                  2.30685000    0.75273100    1.72722100
 H                  1.25422500   -1.46968500    1.82715800
 H                  1.78800400   -1.18692700    0.15860800
 H                  0.32899300    0.59457800    3.22139500
 H                  0.40009100    2.19105300    2.48471000
 H                 -1.92279200    1.26587600    2.40419200
 H                 -1.28007000    1.51901400    0.78357000
 H                 -1.40811900   -1.15029000    2.28241600
 H                 -2.37864200   -0.71212500    0.86673100
 H                  1.28224300    1.22978400    0.38018200
 C                 -0.32150600   -1.10865800    0.46046700
 O                 -0.56807900   -1.70239700   -0.56618200
 C                 -0.56753600    1.02203500   -2.33999200
 H                 -1.33164700    0.29541800   -2.11152700
 H                 -0.74182300    2.05122700   -2.61343900
 N                  0.65783400    0.60561600   -2.33964900
 N                  1.72552800    0.24277900   -2.33935000

Refene: Auto
FixBond1: 16 18 3.19 3.04 2.89 2.74 2.58 2.43 2.28 2.13 1.98 1.82 1.67 1.52
FixBond2: 17 22 2.88 2.74 2.60 2.47 2.33 2.19 2.06 1.92 1.78 1.64 1.51 1.37




