%mem=1GB
%nprocs=1
#p opt=(nomicro,gdiis,loose,modredundant,maxstep=20,notrust,gic) def2svpp external='Gaussian_xtb.py' iop(2/9=2000) nosymm

F(1,10); F(2,4); 

0 1
 C                 -1.06905108    0.71254281    1.93694080
 O                 -0.47188729    0.06370111    2.69412344
 O                 -1.69512893    1.36021576    1.19831691
 C                  2.33379204   -0.47674416    1.80858161
 H                  2.49168809    0.53965495    2.15740338
 H                  2.71752160   -1.27299699    2.43736507
 C                  1.73923500   -0.75379900    0.64461600
 H                  1.64709647   -1.78906933    0.32418054
 C                  1.18077900    0.22680700   -0.28656500
 C                  1.30817000    1.54717300   -0.04391300
 H                  1.80578900    1.88961000    0.85479300
 H                  0.89712400    2.29615700   -0.71343700
 N                  0.44822000   -0.28004000   -1.36558600
 H                  0.24529200    0.40795500   -2.07686600
 H                  0.84445900   -1.11609400   -1.77223900

Refene: Auto
FixBond1: 1 10 3.19 3.04 2.89 2.74 2.58 2.43 2.28 2.13 1.98 1.82 1.67 1.52 0.00 0.00 0.00 0.00 0.00
FixBond2: 2 4 0.00 0.00 0.00 0.00 0.00 2.98 2.84 2.70 2.56 2.41 2.27 2.13 1.99 1.85 1.70 1.56 1.42

