%mem=1GB
%nprocs=1
#p opt=(nomicro,gdiis,loose,modredundant,maxstep=20,notrust,gic) def2svpp external='Gaussian_xtb.py' iop(2/9=2000) nosymm

F(5,8); F(1,9); 

0 1
 C            -1.627462000000     -0.950493000000     -0.245862000000
 H            -1.125640000000     -1.457062000000      0.588687000000
 H            -2.700327000000     -0.771099000000     -0.164159000000
 C             0.342785000000     -0.856351000000     -1.431078000000
 C             0.883097000000     -2.075643000000     -1.274854000000
 H             0.261736000000     -2.910376000000     -0.981612000000
 H             1.923464000000     -2.249291000000     -1.521400000000
 C             1.411059000000      0.483344000000      1.234833000000
 C             0.431273000000      0.835085000000      1.847143000000
 O             1.132584000000      0.178433000000     -1.842146000000
 C             0.506901000000      1.448412000000     -2.080895000000
 H             0.000194000000      1.821745000000     -1.184263000000
 H             1.325254000000      2.119654000000     -2.349059000000
 H            -0.212594000000      1.387140000000     -2.903368000000
 H             2.238023000000      0.149635000000      0.651523000000
 C            -0.735842000000      1.258382000000      2.568912000000
 H            -0.559821000000      2.037077000000      3.338540000000
 O            -1.845613000000      0.806712000000      2.362822000000
 N            -1.015656000000     -0.561409000000     -1.290331000000

Refene: Auto
FixBond1: 5 8 3.19 3.04 2.89 2.74 2.58 2.43 2.28 2.13 1.98 1.82 1.67 1.52 0.00 0.00 0.00
FixBond2: 1 9 0.00 0.00 0.00 3.19 3.04 2.89 2.74 2.58 2.43 2.28 2.13 1.98 1.82 1.67 1.52

