%mem=1GB
%nprocs=1
#p opt=(nomicro,gdiis,maxstep=20,notrust) freq nosymm
external='sevennclient.py' iop(2/9=2000)

Title Card Required

0 1
 C                  0.19250172    2.54235978   -0.26886735
 C                  1.33036921    2.88090311    0.47441481
 C                  1.33526359    4.00737866    1.28308603
 C                  0.19890165    4.81048970    1.36925843
 C                 -0.94121178    4.47611534    0.64328519
 C                 -0.94601578    3.34953539   -0.17025640
 H                  2.19944696    2.23476564    0.40188091
 H                  2.22471379    4.26079143    1.85287968
 H                  0.20127004    5.69140251    2.00491640
 H                 -1.83442793    5.08949423    0.71601003
 H                 -1.85898738    3.09176210   -0.69618920
 C                  0.25943516    1.29714565   -1.08814775
 O                  1.19827906    0.52143370   -0.95223739
 C                 -0.82033705    1.03343266   -2.07758323
 C                 -0.81445861   -0.05442597   -2.81120323
 C                 -0.77535918   -1.14630585   -3.50629532
 H                 -0.26959537   -1.18596997   -4.46819919
 H                 -1.24554915   -2.05805672   -3.14520458
 H                 -1.61962330    1.75574675   -2.21696965
 C                 -1.23699348   -2.08899483    2.71294811
 C                 -1.74474398   -2.04134431    1.41581452
 C                 -1.01737161   -2.57785052    0.36013754
 C                  0.22564370   -3.17624693    0.58346171
 C                  0.72104754   -3.22361215    1.88633207
 C                 -0.00139299   -2.68221257    2.94618141
 H                 -1.80182515   -1.65935555    3.53540184
 H                 -2.70893066   -1.57742341    1.22713963
 H                 -1.39842821   -2.52855676   -0.65607215
 H                  1.69560350   -3.66864238    2.07034462
 H                  0.41641674   -2.69491864    3.94910907
 C                  1.01388491   -3.74328960   -0.57200307
 H                  0.44386505   -4.57337594   -1.01455050
 H                  1.95269145   -4.16923601   -0.17909032
 N                  1.22586324   -2.71976489   -1.60812591
 H                  1.81701127   -1.99100265   -1.21226519
 H                  1.74409486   -3.12900533   -2.37774168

Refene: Auto
FixBond1: 13 35 2.04 1.94 1.84 1.75 1.65 1.55 1.46 1.36 1.26 1.16 1.07 0.97
FixBond2: 15 34 3.09 2.94 2.79 2.65 2.50 2.35 2.21 2.06 1.91 1.76 1.62 1.47

