%mem=1GB
%nprocs=1
#p freq nosymm external='sevennclient.py' iop(2/9=2000)

rxn_080_seven-prd--freq

0 1
 C                 -0.04564320   -0.60024939   -0.97759338
 H                 -1.12434680   -0.70070512   -1.15267435
 C                  0.31340159   -1.44341691    0.25560475
 H                  1.36767658   -1.25313109    0.51738380
 C                  0.20316353   -2.93663683   -0.05578620
 H                  0.93968332   -3.16121703   -0.83622577
 C                  0.51353724   -3.78639283    1.16757495
 H                 -0.21898386   -3.57392417    1.95198101
 H                  1.52077187   -3.55664069    1.54257516
 O                  0.43480127   -5.14936138    0.74192796
 H                  0.39418488   -5.71510698    1.51688278
 C                  0.29591422    0.90508935   -0.87252761
 O                  0.03316084    1.50862671   -2.12593603
 O                  0.69716200   -1.10679677   -2.07206450
 H                  0.55810109   -0.49206930   -2.80314339
 O                 -0.53718122   -1.16415258    1.35585085
 H                 -0.32812679   -0.29759079    1.71997338
 O                 -1.10490543   -3.21455250   -0.53026351
 H                 -1.16228319   -4.17199897   -0.62570290
 H                  1.37060915    1.00896249   -0.68172491
 H                 -0.88254428    1.82221961   -2.08753783
 C                 -0.51531667    1.63686593    0.18824510
 N                  0.04488441    1.77401809    1.41851210
 O                  0.46511991    4.49870567   -0.58245137
 H                 -0.45192554    2.37175950    2.07580834
 H                  0.17018581    5.14575855    0.06436720
 H                  1.04425468    1.69133878    1.51524382
 O                 -1.63576528    2.04514926   -0.08269132
 H                  1.09877976    4.96132311   -1.15625707
 O                  0.39724966    5.19036947    1.56054400
 H                  0.54728736    4.27399881    1.80416975
 H                  0.25501085    5.71343760    2.35286203

Refene: Auto
FixBond1: 22 24 2.98 2.84 2.70 2.56 2.41 2.27 2.13 1.99 1.85 1.70 1.56 1.42
FixBond2: 23 31 2.14 2.04 1.94 1.84 1.73 1.63 1.53 1.43 1.33 1.22 1.12 1.02



