%mem=1GB
%nprocs=1
#p opt=(nomicro,gdiis,loose,modredundant,maxstep=20,notrust,gic) def2svpp external='Gaussian_xtb.py' iop(2/9=2000) nosymm

F(2,12); F(10,11); 

0 1
 C            -1.388735000000      0.310789000000      0.704513000000
 C            -0.752088000000      1.362552000000      1.229927000000
 H            -1.168861000000      1.881385000000      2.088050000000
 H             0.205493000000      1.691817000000      0.840190000000
 C            -0.929850000000     -0.553360000000     -0.421505000000
 H             0.050120000000     -0.236023000000     -0.783897000000
 H            -0.875122000000     -1.598118000000     -0.097686000000
 H            -1.644867000000     -0.496911000000     -1.249596000000
 N            -2.581439000000     -0.198330000000      1.362005000000
 O            -3.277776000000      0.630808000000      1.909949000000
 C            -4.002541000000      1.997001000000     -0.964810000000
 N            -3.466262000000      1.402261000000     -1.797332000000
 C            -4.673609000000      2.742418000000      0.080958000000
 H            -3.939316000000      3.096858000000      0.809058000000
 H            -5.206626000000      3.595021000000     -0.348797000000
 H            -5.384530000000      2.094442000000      0.600558000000

Refene: Auto
FixBond1: 2 12 3.09 2.94 2.79 2.65 2.50 2.35 2.21 2.06 1.91 1.76 1.62 1.47 0.00
FixBond2: 10 11 0.00 2.98 2.84 2.70 2.56 2.41 2.27 2.13 1.99 1.85 1.70 1.56 1.42

