%mem=8GB
%chk=rxn_0212.chk
%nprocshared=8
#p opt=nomicro nosymm def2svpp external='gaussian_xtb.py' iop(2/9=2000)

Title Card Required

0 1
 C                 -3.01104970    0.67809264   -0.67006497
 C                 -3.22845267   -0.62391335   -0.53964674
 H                 -3.84195452    1.35153403   -0.49540577
 H                 -4.23539831   -0.93518389   -0.28870424
 C                  0.41730004    1.50148634    0.34258819
 C                  0.88528838    0.49495603    1.08499200
 C                  1.32098747    2.31339400   -0.54101515
 H                  2.33439573    1.92404553   -0.52643646
 H                  0.94767562    2.31476055   -1.56490088
 H                  1.34501444    3.34638509   -0.19434442
 C                 -1.02691896    1.90904114    0.28860096
 H                 -1.08148476    2.99942553    0.28783679
 H                 -1.55519260    1.55758506    1.17233997
 C                 -1.72068370    1.36296660   -0.99193251
 H                 -1.05358531    0.67537511   -1.50910073
 H                 -1.92643945    2.19277482   -1.67130015
 C                 -2.26144254   -1.76656446   -0.70526628
 H                 -2.75949307   -2.67529715   -0.36007097
 H                 -2.04601587   -1.90264258   -1.77023662
 C                 -0.92868293   -1.62228898    0.04519306
 H                 -0.28510594   -0.92449164   -0.48675235
 H                 -0.42400023   -2.59176694    0.04373960
 C                 -1.11498419   -1.12302501    1.47821614
 H                 -1.34752176   -1.96213075    2.13823532
 H                 -1.97703842   -0.45790536    1.49805096
 C                  0.10982096   -0.38425940    2.04312965
 H                 -0.21573809    0.22809054    2.88971043
 H                  0.81935736   -1.11377275    2.44076208
 O                  2.25635581    0.24568984    1.07857084
 C                  2.64827010   -0.92802696    0.38849616
 H                  1.85196764   -1.68591683    0.43882370
 H                  3.55371369   -1.35887586    0.84795095
 C                  2.94455411   -0.56542179   -1.03209880
 H                  3.51187550    0.34713725   -1.14724517
 C                  2.55690300   -1.26991188   -2.07749632
 H                  1.98137148   -2.17507888   -1.97081204
 H                  2.80729416   -0.97871905   -3.08287883

Refene: Auto
FixBond1: 5 35 3.19 3.04 2.89 2.74 2.58 2.43 2.28 2.13 1.98 1.82 1.67 1.52


