%mem=1GB
%nprocs=1
#p opt=(nomicro,gdiis,loose,modredundant,maxstep=20,notrust,gic) def2svpp external='Gaussian_xtb.py' iop(2/9=2000) nosymm

F(13,29); F(11,25); 

0 1
 C            -3.419108000000     -1.114681000000      0.274300000000
 C            -2.424496000000     -1.510356000000     -0.609871000000
 C            -1.341577000000     -0.682795000000     -0.917076000000
 C            -1.257220000000      0.589439000000     -0.311606000000
 C            -2.283694000000      0.983560000000      0.561774000000
 C            -3.345947000000      0.145338000000      0.862060000000
 H            -4.252617000000     -1.776607000000      0.490513000000
 H            -2.483000000000     -2.491000000000     -1.078273000000
 H            -2.252099000000      1.982148000000      0.988061000000
 H            -4.127440000000      0.481800000000      1.537530000000
 C            -0.132088000000      1.492342000000     -0.577780000000
 H             0.345357000000      1.419724000000     -1.553795000000
 C             0.371985000000      2.374686000000      0.292541000000
 H            -0.044343000000      2.427647000000      1.299206000000
 C             1.504627000000      3.299697000000     -0.008060000000
 H             2.323721000000      3.160350000000      0.707699000000
 H             1.899048000000      3.133876000000     -1.015116000000
 H             1.189707000000      4.348659000000      0.069292000000
 C            -0.272231000000     -1.221420000000     -1.831965000000
 H             0.179967000000     -0.428252000000     -2.435198000000
 H            -0.731910000000     -1.928969000000     -2.532494000000
 C             0.857185000000     -1.977035000000     -1.081901000000
 H             0.411788000000     -2.802499000000     -0.512869000000
 H             1.533345000000     -2.417068000000     -1.823842000000
 C             1.667769000000     -1.136996000000     -0.165571000000
 C             2.857453000000     -0.483655000000     -0.300244000000
 C             3.113609000000      0.167638000000      0.943962000000
 H             3.479233000000     -0.474790000000     -1.184310000000
 C             2.062857000000     -0.130615000000      1.751475000000
 H             3.968998000000      0.774531000000      1.203152000000
 H             1.808974000000      0.116990000000      2.770462000000
 O             1.176788000000     -0.934043000000      1.095529000000

Refene: Auto
FixBond1: 13 29 3.19 3.04 2.89 2.74 2.58 2.43 2.28 2.13 1.98 1.82 1.67 1.52 0.00 0.00
FixBond2: 11 25 0.00 0.00 3.19 3.04 2.89 2.74 2.58 2.43 2.28 2.13 1.98 1.82 1.67 1.52

