%mem=1GB
%nprocs=1
#p opt=(nomicro,gdiis,loose,modredundant,maxstep=20,notrust,gic) def2svpp external='Gaussian_xtb.py' iop(2/9=2000) nosymm

F(1,21); F(10,22); 

0 1
 C            -0.286523000000      1.872442000000     -0.183391000000
 C             0.731326000000      2.370653000000      0.812414000000
 H             1.495491000000      1.587267000000      0.907433000000
 H             1.221561000000      3.290641000000      0.479577000000
 H             0.266943000000      2.509390000000      1.790840000000
 C             0.017911000000      2.123551000000     -1.641016000000
 H            -0.071881000000      3.197408000000     -1.847696000000
 H             1.052368000000      1.842932000000     -1.869498000000
 H            -0.675499000000      1.571930000000     -2.277556000000
 O            -1.287182000000      1.275531000000      0.167877000000
 C            -0.580092000000     -3.148490000000      0.692621000000
 H            -0.628939000000     -4.003866000000      0.007978000000
 H            -1.539879000000     -2.619213000000      0.642876000000
 H            -0.459032000000     -3.537723000000      1.709913000000
 C             0.565742000000     -2.199448000000      0.325660000000
 H             1.511238000000     -2.761459000000      0.369633000000
 C             0.393577000000     -1.662385000000     -1.092540000000
 H            -0.533921000000     -1.081316000000     -1.167965000000
 H             1.230728000000     -1.009902000000     -1.360903000000
 H             0.341516000000     -2.480420000000     -1.818352000000
 N             0.705726000000     -1.060215000000      1.250826000000
 H            -0.165913000000     -0.532373000000      1.254530000000
 H             0.823504000000     -1.407265000000      2.198128000000

Refene: Auto
FixBond1: 1 21 3.09 2.94 2.79 2.65 2.50 2.35 2.21 2.06 1.91 1.76 1.62 1.47 0.00 0.00 0.00
FixBond2: 10 22 0.00 0.00 0.00 2.04 1.94 1.84 1.75 1.65 1.55 1.46 1.36 1.26 1.16 1.07 0.97

