%mem=1GB
%nprocs=1
#p freq nosymm external='sevennclient.py' iop(2/9=2000)

rxn_063_seven-prd--freq

0 1
 C                 -1.12421961   -0.00663153    0.30694224
 C                 -2.04727033   -1.03384980    0.50511240
 C                 -1.56360787    1.26317405   -0.06733023
 C                 -3.40932873   -0.79140191    0.32837053
 H                 -1.70048337   -2.03502814    0.79942945
 C                 -2.92612614    1.50611637   -0.24320776
 H                 -0.83625044    2.07294332   -0.22338770
 C                 -3.84897543    0.47907047   -0.04556433
 H                 -4.13689657   -1.60117917    0.48394147
 H                 -3.27230519    2.50750850   -0.53790769
 H                 -4.92296394    0.67000937   -0.18480278
 C                  0.37971364   -0.27478874    0.50156109
 C                  2.77186893    0.49965587    0.45577814
 H                  2.53748389    0.02925631    1.38781242
 H                  3.37775062   -0.15713780   -0.13280444
 C                  3.70073257    1.69754027    0.18395956
 H                  4.71557258    1.40990215    0.36358155
 H                  3.59303355    2.00855493   -0.83416165
 H                  3.43897055    2.50645969    0.83359793
 C                  1.30832737    0.92408708    0.23328269
 H                  1.06119621    1.72166463    0.90238375
 H                  1.18378818    1.25439197   -0.77681071
 N                  0.83285667   -1.43028191    0.86611274
 N                  2.16947449   -1.76707057    0.62111031
 H                  2.28503476   -2.75664122    0.70710880
 H                  2.42116579   -1.48118551   -0.30350919
 O                  1.07236804   -0.99430595   -2.57928506
 H                  0.69734154   -0.48415827   -1.85768650
 H                  0.51561295   -0.90727860   -3.35649160

Refene: Auto
FixBond1: 12 28 2.04 1.94 1.84 1.75 1.65 1.55 1.46 1.36 1.26 1.16 1.07 0.97
FixBond2: 26 27 2.04 1.94 1.84 1.75 1.65 1.55 1.46 1.36 1.26 1.16 1.07 0.97



