%mem=1GB
%nprocs=1
#p opt=(nomicro,gdiis,loose,modredundant,maxstep=20,notrust,gic) def2svpp external='Gaussian_xtb.py' iop(2/9=2000) nosymm

F(3,17); F(2,15); 

0 1
 C            -1.147652000000     -0.788015000000      0.715397000000
 C             0.092937000000     -1.296875000000      0.775375000000
 C            -0.609433000000      1.036841000000      2.232479000000
 C            -1.454242000000      0.491221000000      1.344610000000
 H            -1.928480000000     -1.305548000000      0.164227000000
 H             0.333289000000     -2.226292000000      0.264430000000
 H            -0.858005000000      1.968016000000      2.735948000000
 H            -2.392762000000      0.982892000000      1.100339000000
 C             0.649405000000      0.309048000000      2.621607000000
 H             0.417966000000     -0.348154000000      3.477483000000
 H             1.415530000000      1.009914000000      2.970890000000
 C             1.188728000000     -0.529564000000      1.459201000000
 H             1.983820000000     -1.198392000000      1.806067000000
 H             1.649720000000      0.141732000000      0.710263000000
 C            -0.047061000000      0.830247000000     -1.932228000000
 H            -1.083112000000      1.143183000000     -1.827047000000
 C             0.974616000000      1.611357000000     -1.573115000000
 H             0.824483000000      2.601717000000     -1.155565000000
 H             2.002259000000      1.272350000000     -1.692334000000
 C             0.189285000000     -0.506266000000     -2.490029000000
 H             1.264849000000     -0.804288000000     -2.538225000000
 O            -0.685145000000     -1.250831000000     -2.883786000000

Refene: Auto
FixBond1: 3 17 3.19 3.04 2.89 2.74 2.58 2.43 2.28 2.13 1.98 1.82 1.67 1.52 0.00 0.00 0.00
FixBond2: 2 15 0.00 0.00 0.00 3.19 3.04 2.89 2.74 2.58 2.43 2.28 2.13 1.98 1.82 1.67 1.52

