%mem=1GB
%nprocs=1
#p opt=(nomicro,gdiis,loose,modredundant,maxstep=20,notrust,gic) def2svpp external='Gaussian_xtb.py' iop(2/9=2000) nosymm

F(11,13); B(11,12) 

0 1
 C             2.597489000000     -1.009547000000      0.000551000000
 C             0.769882000000      0.491175000000     -0.006808000000
 C             1.644009000000      1.557905000000     -0.001430000000
 C             3.021378000000      1.358150000000      0.005032000000
 C             3.483939000000      0.045640000000      0.005935000000
 H             2.880273000000     -2.054967000000      0.000842000000
 H            -0.317474000000      0.580192000000     -0.011513000000
 H             1.222796000000      2.558528000000     -0.002389000000
 H             3.710546000000      2.194853000000      0.009230000000
 H             4.546486000000     -0.176240000000      0.010874000000
 O             0.436933000000     -1.788261000000     -0.010878000000
 N             1.241484000000     -0.798408000000     -0.005867000000
 N            -2.562870000000      0.300382000000     -0.002357000000
 C            -2.631784000000     -0.536634000000     -1.199871000000
 H            -2.543859000000      0.089948000000     -2.095174000000
 H            -1.802017000000     -1.251860000000     -1.189729000000
 H            -3.583739000000     -1.100349000000     -1.266960000000
 C            -2.620048000000     -0.530057000000      1.200323000000
 H            -1.789149000000     -1.243955000000      1.186852000000
 H            -2.525432000000      0.101652000000      2.091329000000
 H            -3.570384000000     -1.095003000000      1.278835000000
 C            -3.629935000000      1.294804000000      0.000061000000
 H            -3.542278000000      1.934524000000      0.885613000000
 H            -3.551090000000      1.929310000000     -0.890059000000
 H            -4.640131000000      0.837530000000      0.006384000000

Refene: Auto
FixBond1: 11 13 2.88 2.74 2.60 2.47 2.33 2.19 2.06 1.92 1.78 1.64 1.51 1.37 0.00 0.00 0.00 0.00 0.00
FixBond2: 11 12 0.00 0.00 0.00 0.00 0.00 1.37 1.51 1.64 1.78 1.92 2.06 2.19 2.33 2.47 2.60 2.74 2.88

