%mem=1GB
%nprocs=1
#p freq nosymm external='sevennclient.py' iop(2/9=2000)

rxn_063_seven-prd--freq

0 1
 C                  0.24416863    0.43404339   -1.35229959
 H                 -0.70527470    0.33941835   -1.83655517
 C                  0.29377172   -0.50404141   -0.13199780
 H                  1.24321615   -0.40941791    0.35225590
 C                  0.09645885   -1.95947837   -0.59499985
 H                  0.87423308   -2.22425109   -1.28046513
 C                  0.14634386   -2.89759033    0.62526957
 H                 -0.63153378   -2.63309383    1.31072416
 H                  1.09580284   -2.80306111    1.10951312
 O                 -0.03676502   -4.24891957    0.19482746
 H                 -0.00584390   -4.83436661    0.95502193
 C                  0.44147785    1.88948047   -0.88929638
 O                  0.08872720    2.77956293   -1.95147349
 O                  1.28377509    0.08010596   -2.26818535
 H                  0.98604417    0.23728931   -3.16721243
 O                 -0.74583288   -0.15010210    0.78388932
 H                 -0.35971324    0.09328344    1.62844548
 O                 -1.17253719   -2.08599588   -1.24194837
 H                 -1.13290942   -2.79351622   -1.88959382
 H                  1.46590691    2.04263791   -0.62099077
 H                  0.87080322    3.25187146   -2.24623061
 O                  0.65009704    0.27230135    2.66005440
 H                  0.94209913   -0.47828639    3.18250329
 H                  0.95895750    1.08528356    3.06658254
 C                 -0.45573955    2.16593502    0.33143038
 O                 -1.65437979    2.43723872    0.38815513
 O                  0.22753451    2.08620669    1.50112690
 H                 -0.36041408    2.26439674    2.25327424

Refene: Auto
FixBond1: 16 25 0.00 0.00 2.27 2.13 1.99 1.85 1.70 1.56 1.42 0.00 0.00 0.00 0.00 0.00 0.00
FixBond2: 25 27 0.00 0.00 0.00 0.00 0.00 0.00 1.42 1.56 1.70 1.85 1.99 2.13 2.27 2.41 2.56



