%mem=1GB
%nprocs=1
#p opt=(nomicro,gdiis,loose,modredundant,maxstep=20,notrust,gic) def2svpp external='Gaussian_xtb.py' iop(2/9=2000) nosymm

F(18,21); 

0 1
 C                  2.13953800    1.72544000    0.73006500
 C                  0.78724600    1.81074700    0.02972200
 C                  2.39516500   -0.67802100    0.06833900
 C                  3.02323300    0.71337300    0.00926200
 H                  0.06793900    2.38589500    0.63047400
 H                  0.87898300    2.37366400   -0.91351300
 H                  2.61221100    2.71402000    0.76037600
 H                  1.99384000    1.40430100    1.77128100
 H                  2.54437000   -1.11614600    1.06738200
 H                  2.91182500   -1.34698900   -0.63167800
 H                  4.02868800    0.68716600    0.44489700
 H                  3.13678300    1.01971700   -1.03993000
 C                  0.91802700   -0.68756200   -0.24951700
 C                  0.19685500    0.45692500   -0.28398200
 C                 -1.25335000    0.49384300   -0.60762400
 C                  0.27625400   -1.97830100   -0.47310900
 H                  0.94575693   -2.82836281   -0.59340124
 C                 -1.70547300    0.61317900   -1.85926900
 H                 -2.77426300    0.67751400   -2.04522800
 H                 -1.02191900    0.63899500   -2.70300800
 C                 -1.04332931   -2.19445122   -0.55880147
 H                 -1.77650174   -1.40114630   -0.44882493
 H                 -1.42762858   -3.19139606   -0.74782809
 C                 -2.26040400    0.44288100    0.52178600
 C                 -1.73307500    0.10187300    1.89393200
 H                 -1.29522500   -0.90371200    1.88020300
 H                 -0.92388100    0.78182900    2.18323500
 H                 -2.54501900    0.14677200    2.62077400
 O                 -3.44505200    0.63521700    0.32205800

Refene: Auto
FixBond1: 18 21 3.19 3.04 2.89 2.74 2.58 2.43 2.28 2.13 1.98 1.82 1.67 1.52

