%mem=1GB
%nprocs=1
#p opt=(nomicro,gdiis,loose,modredundant,maxstep=20,notrust,gic) def2svpp external='Gaussian_xtb.py' iop(2/9=2000) nosymm

F(13,16); F(11,22); 

0 1
 C             0.600016000000      2.334960000000      0.504885000000
 C             0.035586000000      1.449649000000      1.417806000000
 C            -0.764728000000      0.421198000000      0.941235000000
 C            -0.988952000000      0.304153000000     -0.435068000000
 C            -0.346566000000      1.238197000000     -1.262985000000
 N             0.424507000000      2.230340000000     -0.818746000000
 H            -1.211303000000     -0.299267000000      1.622732000000
 H             1.228551000000      3.157448000000      0.844536000000
 H             0.222320000000      1.564244000000      2.481433000000
 H            -0.444128000000      1.160675000000     -2.345871000000
 C            -1.823807000000     -0.781936000000     -0.956058000000
 H            -1.976915000000     -1.615457000000     -0.270108000000
 C            -2.403660000000     -0.819602000000     -2.158595000000
 H            -2.321529000000     -0.005148000000     -2.872915000000
 H            -3.001295000000     -1.674569000000     -2.456396000000
 C             1.490706000000     -1.959203000000      0.076665000000
 C             2.382587000000     -1.091667000000     -0.670338000000
 H             3.428357000000     -1.365866000000     -0.501802000000
 H             2.176295000000     -1.163162000000     -1.743271000000
 H             2.237578000000     -0.049842000000     -0.362278000000
 N             0.637589000000     -2.472723000000      0.674014000000
 O            -0.237626000000     -3.031724000000      1.297317000000

Refene: Auto
FixBond1: 13 16 3.19 3.04 2.89 2.74 2.58 2.43 2.28 2.13 1.98 1.82 1.67 1.52 0.00 0.00 0.00
FixBond2: 11 22 0.00 0.00 0.00 2.98 2.84 2.70 2.56 2.41 2.27 2.13 1.99 1.85 1.70 1.56 1.42

