%mem=1GB
%nprocs=1
#p freq nosymm def2svpp external='gaussian_orca.py' iop(2/9=2000)

IM-1

0 1
 C                 -0.32229590   -1.12113006    0.19639650
 C                  0.98398036   -0.71657983    0.01411114
 C                  0.97355418    0.73141284    0.01414812
 C                 -0.33889868    1.11585248    0.19643278
 C                 -1.15695210   -0.00860966    0.31130555
 H                 -1.64851239   -0.01215981    1.26170330
 C                 -1.04786752   -2.47563094    0.29873509
 H                 -1.53326793   -2.54929536    1.24945061
 H                 -1.77716172   -2.54937183   -0.48074695
 H                 -0.33730361   -3.26933950    0.19860697
 C                  2.23030246   -1.60456447   -0.15841276
 H                  2.35128527   -2.22152862    0.70739230
 H                  2.11057872   -2.22312842   -1.02325082
 H                  3.09499412   -0.98601242   -0.27925022
 C                  2.20658522    1.63775148   -0.15843435
 H                  2.90586690    1.44208584    0.62745374
 H                  2.66686624    1.43764668   -1.10342083
 H                  1.90373852    2.66325050   -0.11924710
 C                 -1.08453036    2.45940728    0.29887255
 H                 -0.70064300    3.01814877    1.12672426
 H                 -0.94220970    3.01603093   -0.60379845
 H                 -2.12880695    2.27755058    0.44486751
 C                 -2.21072488   -0.01622665   -0.81168373
 H                 -1.72398348   -0.13835030   -1.75670681
 H                 -2.89325409   -0.82521116   -0.65484648
 H                 -2.74710356    0.90958925   -0.80375635

Refene: Auto
FixBond1: 1 6 2.03 1.93 1.82 1.71 1.60 1.50 1.39 1.28 1.18 1.07






