%mem=1GB
%nprocs=1
#p opt=(nomicro,gdiis,maxstep=20,notrust) freq nosymm
external='sevennclient.py' iop(2/9=2000)

Title Card Required

0 1
 C                 -0.04775225    0.43387488   -1.21220789
 C                  1.10982064    1.20437676   -1.09896796
 C                  1.05128503    2.58408579   -1.29441182
 C                 -0.16503166    3.19374316   -1.60442496
 C                 -1.32219822    2.42329963   -1.71808826
 C                 -1.26365616    1.04331096   -1.52158384
 H                  2.06811858    0.72370941   -0.85429318
 H                  1.96353868    3.19155210   -1.20455369
 H                 -0.21092854    4.28160280   -1.75853922
 H                 -2.28094910    2.90348403   -1.96241165
 H                 -2.17606819    0.43616236   -1.61104822
 C                  0.01706746   -1.08945656   -0.99573679
 C                  0.06736587   -2.27152218   -0.82776083
 C                  0.13218558   -3.79485362   -0.61128973
 C                  0.40892171   -4.50326521   -1.90447193
 H                 -0.84277737   -4.12749171   -0.17906908
 H                  0.93537571   -4.00713675    0.13558639
 H                  0.45607922   -5.60826773   -1.74788309
 H                 -0.39444637   -4.29067736   -2.65112033
 H                  1.38383606   -4.17023954   -2.33657189
 C                 -0.48546044   -1.96992432    3.07063880
 C                 -0.72266096   -0.81008215    2.47351628
 H                 -1.22012952   -2.78590740    3.09558537
 H                  0.46158006   -2.19245845    3.58031977
 H                 -1.66970295   -0.58754657    1.96383873
 C                  0.30750913    0.33408758    2.43851322
 H                  0.54173414    0.63385149    3.43860334
 H                  1.19766752   -0.00228991    1.94926050
 O                 -0.23858534    1.44546257    1.72330244
 C                  0.71734490    2.50849847    1.69086676
 H                  1.60786149    2.17257651    1.20195303
 H                  0.30836922    3.33971901    1.15541247
 H                  0.95108016    2.80861802    2.69096480

Refene: Auto
FixBond1: 13 21 3.19 3.04 2.89 2.74 2.58 2.43 2.28 2.13 1.98 1.82 1.67 1.52
FixBond2: 12 28 2.25 2.14 2.03 1.93 1.82 1.71 1.60 1.50 1.39 1.28 1.18 1.07











