%mem=1GB
%nprocs=1
#p freq nosymm external='sevennclient.py' iop(2/9=2000)

rxn_063_seven-prd--freq

0 1
 C                  0.69015342    0.47005210   -0.24184693
 H                 -0.29751458    0.69105195   -0.58908026
 C                  0.67377577   -0.85452514    0.54353637
 H                  1.66144444   -1.07552585    0.89076726
 C                  0.18660919   -1.99020525   -0.37543012
 H                  0.84706036   -2.07983034   -1.21249140
 C                  0.17050069   -3.31483280    0.40987389
 H                 -0.49010132   -3.22544339    1.24684135
 H                  1.15816624   -3.53591816    0.75705973
 O                 -0.28177599   -4.36908013   -0.44388741
 H                 -0.29214484   -5.19521023    0.04499044
 C                  1.17731653    1.60573238    0.67712119
 O                  0.90079044    2.86736694    0.06335287
 O                  1.57296294    0.35010095   -1.36039915
 H                  1.23497809    0.87081344   -2.09267284
 O                 -0.20903148   -0.73457302    1.66209027
 H                  0.27341113   -0.91599234    2.47198913
 O                 -1.13346069   -1.69497429   -0.83927730
 H                 -1.27186263   -2.10676067   -1.69535958
 O                  0.82453135    3.73632076    2.32952733
 H                  1.14600545    3.94697271    3.20923191
 H                  1.11366960    4.41234484    1.71228302
 H                  2.23117400    1.50937302    0.83523289
 H                  1.72692341    3.30707755   -0.15056045
 C                  0.44551014    1.52141472    2.02950795
 N                 -0.09935298    1.45863639    3.03642136
 O                  0.67401630    3.02559459    5.21501057
 H                  0.25119424    2.44106296    4.58165106
 H                  0.26716482    2.91209029    6.07709447

Refene: Auto
FixBond1: 20 25 0.00 0.00 0.00 0.00 0.00 2.27 2.13 1.99 1.85 1.70 1.56 1.42
FixBond2: 26 28 0.00 0.00 0.00 1.84 1.73 1.63 1.53 1.43 1.33 1.22 1.12 1.02










