%mem=1GB
%nprocs=1
#p opt=(nomicro,gdiis,loose,modredundant,maxstep=20,notrust,gic) def2svpp external='Gaussian_xtb.py' iop(2/9=2000) nosymm

F(1,12); F(2,18); 

0 1
 C            -0.756905000000     -0.352592000000      0.573951000000
 O            -0.508779000000      0.703109000000      1.122973000000
 C            -1.353079000000     -0.409021000000     -0.813132000000
 H            -0.588850000000     -0.787826000000     -1.502650000000
 H            -2.195045000000     -1.109336000000     -0.850484000000
 H            -1.669378000000      0.585429000000     -1.132011000000
 C            -0.496416000000     -1.681039000000      1.245590000000
 H            -1.454718000000     -2.107650000000      1.568846000000
 H            -0.042929000000     -2.390333000000      0.546070000000
 H             0.143573000000     -1.543635000000      2.118734000000
 C             2.435439000000     -0.025713000000     -0.467576000000
 C             2.399556000000     -1.211814000000     -1.079747000000
 H             2.694839000000     -2.122895000000     -0.565966000000
 H             2.093303000000     -1.304428000000     -2.118690000000
 C             2.873240000000      0.127099000000      0.960550000000
 H             3.140046000000     -0.833557000000      1.409419000000
 H             3.743573000000      0.792715000000      1.024617000000
 H             2.074517000000      0.587435000000      1.555124000000
 C             2.040412000000      1.246939000000     -1.159881000000
 H             1.213129000000      1.728684000000     -0.623583000000
 H             2.875910000000      1.958532000000     -1.160841000000
 H             1.736245000000      1.071158000000     -2.195438000000

Refene: Auto
FixBond1: 1 12 3.19 3.04 2.89 2.74 2.58 2.43 2.28 2.13 1.98 1.82 1.67 1.52 0.00
FixBond2: 2 18 0.00 2.04 1.94 1.84 1.75 1.65 1.55 1.46 1.36 1.26 1.16 1.07 0.97

