%mem=1GB
%nprocs=1
#p opt=(nomicro,gdiis) nosymm external='sevennclient.py' iop(2/9=2000)

rxn_058_seven-prd

0 1
 C                 -1.20633000   -3.93249700    0.76210700
 C                 -0.54139100   -3.35306300   -0.49013300
 C                  0.12431600   -2.00128900   -0.23297200
 C                  1.05986000   -2.04865100    0.96912900
 C                  0.37899400   -2.61535200    2.21518300
 C                 -0.22813000   -3.99331600    1.93829300
 H                  0.25132500   -4.02207200   -0.84311400
 H                 -1.26549900   -3.24619700   -1.30513600
 H                 -2.06886300   -3.31525500    1.03585900
 H                 -1.58989300   -4.93263300    0.53505700
 H                  1.90605200   -2.67980900    0.67482100
 H                  1.45537600   -1.04702700    1.15109600
 H                  1.10570300   -2.67538800    3.03206500
 H                 -0.40815900   -1.92541200    2.54114200
 H                  0.57718400   -4.70339900    1.70581000
 H                 -0.73534400   -4.37268400    2.83184500
 O                  0.86409400   -1.54724100   -1.33105900
 C                  0.18842500    2.70491300    0.93548800
 C                 -0.16588600    2.37387200   -0.37198800
 C                 -0.14169100    3.34422900   -1.37105600
 C                  0.23687600    4.64290600   -1.06662600
 C                  0.59067400    4.97346900    0.23734300
 C                  0.56587100    4.00620900    1.23586400
 H                  0.16848500    1.95257200    1.71474100
 H                 -0.42339000    3.06298800   -2.37954800
 H                  0.25582200    5.39839600   -1.84513900
 H                  0.88670700    5.99013200    0.47609400
 H                  0.84217200    4.26619400    2.25252200
 C                 -0.58769300    0.99628100   -0.76419600
 O                 -0.92496500    0.65881600   -1.86500400
 O                 -0.54122000    0.16511500    0.31722300
 O                 -1.00506700   -1.13183500   -0.00463900
 H                  0.23565400   -1.26881200   -2.01091500

Refene: Auto
FixBond1: 2 32 2.27 2.13 1.99 1.85 1.70 1.56 1.42 0.00 0.00 0.00
FixBond2: 31 32 0.00 1.32 1.45 1.58 1.72 1.85 1.98 2.11 2.24 2.38

