%mem=1GB
%nprocs=1
#p freq nosymm external='sevennclient.py' iop(2/9=2000)

rxn_063_seven-prd--freq

0 1
 C                  0.69015342    0.47005210   -0.24184693
 H                 -0.29751458    0.69105195   -0.58908026
 C                  0.67377577   -0.85452514    0.54353637
 H                  1.66144444   -1.07552585    0.89076726
 C                  0.18660919   -1.99020525   -0.37543012
 H                  0.84706036   -2.07983034   -1.21249140
 C                  0.17050069   -3.31483280    0.40987389
 H                 -0.49010132   -3.22544339    1.24684135
 H                  1.15816624   -3.53591816    0.75705973
 O                 -0.28177599   -4.36908013   -0.44388741
 H                 -0.29214484   -5.19521023    0.04499044
 C                  1.17731653    1.60573238    0.67712119
 O                  1.27991153    2.76486251    0.28699476
 H                  1.42956323    1.30615775    1.71622765
 O                  1.57296294    0.35010095   -1.36039915
 H                  1.23497809    0.87081344   -2.09267284
 O                 -0.20903148   -0.73457302    1.66209027
 H                  0.27341113   -0.91599234    2.47198913
 O                 -1.13346069   -1.69497429   -0.83927730
 H                 -1.27186263   -2.10676067   -1.69535958
 C                 -1.75968604    2.13750545    0.02600673
 H                 -1.40660150    3.13438824   -0.13664632
 N                 -2.13804747    1.06925703    0.20030393
 O                 -0.54367943    4.51670237   -0.33053498
 H                  0.34245660    4.31843206   -0.01900357
 H                 -0.53395535    5.34237076   -0.82020544

Refene: Auto
FixBond1: 12 21 0.00 3.04 2.89 2.74 2.58 2.43 2.28 2.13 1.98 1.82 1.67 1.52
FixBond2: 22 24 0.00 0.00 0.00 0.00 1.65 1.55 1.46 1.36 1.26 1.16 1.07 0.97








