49
 -1042.12623324 -1041.75667000  0.00 0.00
C     -2.141185      1.045467     1.381559
C     -0.841659      0.252239     1.735054
H     -2.898391      1.111770     2.166135
H     -0.782692     -0.180043     2.735404
C     -0.667864     -0.774196     0.622539
C      0.766203     -1.049064     0.191921
H     -1.150322     -1.714371     0.917398
H      1.312140     -1.538021     1.009969
C      1.458077      0.266920    -0.087096
C      1.104205      1.411268     0.496187
H      2.297408      0.261297    -0.780305
H      1.655864      2.318995     0.263067
C      0.022266      1.523815     1.533791
C     -1.283303      2.346819     1.252397
H      0.491757      1.864318     2.462711
H     -1.490993      2.989251     2.114844
C     -2.699946      0.398064     0.099925
H     -3.396059     -0.403769     0.373420
H     -3.241712      1.101841    -0.539220
C     -1.447445     -0.181376    -0.555055
C     -1.498714     -1.162198    -1.685517
H     -0.870456      0.669419    -0.930713
H     -2.343548     -1.164752    -2.370715
C     -0.466349     -1.975744    -1.887884
C      0.772981     -2.043546    -1.013043
H     -0.476272     -2.663870    -2.731001
H      1.629549     -1.793811    -1.652052
C      1.005636     -3.468931    -0.523495
C      2.305225     -3.958394    -0.400433
C     -0.052280     -4.298563    -0.153402
C      2.546281     -5.241002     0.076102
H      3.142201     -3.325091    -0.683073
C      0.183738     -5.582782     0.322746
H     -1.071799     -3.939092    -0.248293
C      1.483747     -6.059359     0.439970
H      3.566765     -5.602050     0.160712
H     -0.653926     -6.214739     0.601912
H      1.666876     -7.062589     0.811425
C     -1.388137      3.221861     0.003949
H     -1.143672      2.671714    -0.907225
H     -2.429996      3.556282    -0.092733
C     -0.511691      4.432763     0.106523
C      0.421422      4.776808    -0.776484
H     -0.646225      5.075986     0.975338
H      0.624154      4.188737    -1.666227
C      1.235816      5.997761    -0.573807
O      1.146099      6.768736     0.348892
O      2.132319      6.167851    -1.573892
H      2.623904      6.977371    -1.372228
49
 -1042.12648445 -1041.75657900  -0.16 0.06
C      0.920245     -0.947899    -1.734784
C     -0.200257      0.136617    -1.631207
H      0.840691     -1.642158    -2.574736
H     -0.974249      0.123000    -2.400412
C     -0.753050      0.027365    -0.215971
C     -1.137939      1.342124     0.448349
H     -1.614236     -0.652199    -0.214028
H     -1.995282      1.786091    -0.075143
C      0.016290      2.312397     0.325304
C      0.907462      2.255896    -0.663265
H      0.099975      3.099690     1.072296
H      1.708288      2.992857    -0.698242
C      0.845294      1.268126    -1.794732
C      1.968665      0.189148    -1.979249
H      0.709097      1.835425    -2.721788
H      2.273775      0.171419    -3.030222
C      0.927631     -1.686003    -0.381791
H      0.248051     -2.544951    -0.435268
H      1.915697     -2.061258    -0.101990
C      0.381021     -0.629351     0.576887
C     -0.080165     -0.948565     1.965540
H      1.169827      0.119862     0.695739
H      0.344161     -1.793398     2.503507
C     -0.955505     -0.143536     2.560924
C     -1.594887      1.074873     1.918316
H     -1.266228     -0.343765     3.584542
H     -1.308312      1.943728     2.524463
C     -3.115306      0.984059     1.992803
C     -3.871126      2.136376     2.203774
C     -3.786663     -0.225362     1.816591
C     -5.259099      2.086631     2.241054
H     -3.364646      3.088158     2.341953
C     -5.174896     -0.280349     1.854196
H     -3.216509     -1.135054     1.658351
C     -5.917013      0.875186     2.066101
H     -5.827102      2.996484     2.409694
H     -5.678800     -1.232568     1.718778
H     -7.001057      0.830988     2.095804
C      3.234000      0.290222    -1.139340
H      3.733858      1.242365    -1.366619
H      3.008403      0.342129    -0.068866
C      4.234667     -0.806470    -1.347389
C      4.130663     -1.833249    -2.188163
H      5.142032     -0.752366    -0.747197
H      3.272807     -1.991836    -2.830320
C      5.216683     -2.835937    -2.270643
O      6.245828     -2.827078    -1.641813
O      4.924304     -3.811889    -3.162727
H      5.672912     -4.425973    -3.159060
49
 -1042.12492333 -1041.75585800  0.82 0.51
C     -1.936884      0.827525     0.583206
C     -1.584012     -0.359444    -0.372989
H     -2.891760      1.327033     0.405051
H     -2.315767     -0.606174    -1.143959
C     -0.199845     -0.049927    -0.929257
C      0.721742     -1.247107    -1.119393
H     -0.301091      0.491170    -1.878158
H      0.322952     -1.902917    -1.904897
C      0.757571     -2.048248     0.163355
C     -0.251246     -2.064158     1.033325
H      1.643235     -2.648206     0.364360
H     -0.165906     -2.670768     1.933490
C     -1.554032     -1.345767     0.821035
C     -1.995320     -0.183607     1.776778
H     -2.342756     -2.103494     0.760596
H     -3.042961     -0.335165     2.055242
C     -0.753118      1.811260     0.486672
H     -0.952431      2.535526    -0.312147
H     -0.576999      2.377180     1.405945
C      0.411343      0.899900     0.104918
C      1.727284      1.419741    -0.386033
H      0.643437      0.305725     0.994473
H      2.077342      2.402661    -0.078457
C      2.496488      0.636848    -1.137054
C      2.123037     -0.758149    -1.606646
H      3.472163      0.990328    -1.465022
H      2.878903     -1.444430    -1.203981
C      2.221030     -0.857304    -3.125268
C      1.837682      0.195507    -3.955266
C      2.667588     -2.038148    -3.716931
C      1.902941      0.071241    -5.338059
H      1.493969      1.125706    -3.514577
C      2.733450     -2.167544    -5.098606
H      2.969494     -2.869668    -3.085308
C      2.350518     -1.110627    -5.915624
H      1.603631      0.904154    -5.967064
H      3.087237     -3.095627    -5.537233
H      2.401533     -1.206407    -6.995535
C     -1.218576      0.068593     3.068605
H     -1.238783     -0.839509     3.681445
H     -0.165523      0.280910     2.859045
C     -1.798258      1.210084     3.846687
C     -2.298178      1.119223     5.075601
H     -1.832311      2.185046     3.364282
H     -2.313470      0.186726     5.631115
C     -2.866480      2.311894     5.747265
O     -2.926469      3.425979     5.290265
O     -3.334289      2.010584     6.981597
H     -3.688102      2.831855     7.353114
49
 -1042.12479772 -1041.75581500  0.90 0.54
C     -1.748820      1.248410     1.234190
C     -0.497954      0.394278     1.616384
H     -2.438863      1.488496     2.046273
H     -0.401499      0.097531     2.662128
C     -0.492737     -0.784810     0.651243
C      0.877189     -1.249239     0.177902
H     -1.030300     -1.626764     1.104784
H      1.438603     -1.671492     1.022165
C      1.655011     -0.053591    -0.324427
C      1.441624      1.186672     0.112637
H      2.439697     -0.229708    -1.057973
H      2.057963      1.993147    -0.280073
C      0.450589      1.543164     1.186425
C     -0.800523      2.439634     0.875467
H      1.013929      1.959895     2.028064
H     -0.890982      3.205076     1.652393
C     -2.451831      0.489759     0.092252
H     -3.191584     -0.199370     0.516754
H     -2.977043      1.148698    -0.605695
C     -1.303605     -0.286888    -0.549134
C     -1.519986     -1.403243    -1.523666
H     -0.687463      0.448043    -1.076516
H     -2.410091     -1.419748    -2.148728
C     -0.577562     -2.329896    -1.670936
C      0.712614     -2.393769    -0.872664
H     -0.707309     -3.122516    -2.405350
H      1.537895     -2.313469    -1.591628
C      0.860640     -3.755079    -0.201579
C      2.120176     -4.342469    -0.090927
C     -0.232816     -4.424405     0.346850
C      2.287401     -5.565526     0.546582
H      2.984082     -3.834280    -0.511534
C     -0.070704     -5.648645     0.984546
H     -1.222838     -3.987556     0.265118
C      1.189835     -6.224195     1.087548
H      3.277426     -6.005530     0.618324
H     -0.935421     -6.155918     1.401580
H      1.315242     -7.180497     1.585291
C     -0.929165      3.148072    -0.472813
H     -0.705480      2.463926    -1.297750
H     -1.961174      3.488653    -0.609112
C     -0.000989      4.319874    -0.568808
C     -0.377918      5.577512    -0.779866
H      1.063414      4.128820    -0.445500
H     -1.417929      5.860749    -0.909263
C      0.628554      6.662907    -0.856637
O      1.820893      6.539364    -0.727503
O      0.047735      7.861628    -1.099605
H      0.762073      8.514295    -1.137210
49
 -1042.12524632 -1041.75567600  0.62 0.62
C     -1.493049      0.073403    -2.265343
C     -1.557589      0.698681    -0.834271
H     -2.400945      0.145962    -2.868469
H     -2.501394      1.159694    -0.538032
C     -1.096202     -0.397782     0.117667
C     -0.258583      0.062178     1.302755
H     -1.968897     -0.956302     0.478334
H     -0.873251      0.674282     1.976429
C      0.867363      0.938492     0.800110
C      0.788720      1.647390    -0.325143
H      1.769280      1.002378     1.406318
H      1.630043      2.269996    -0.620543
C     -0.436365      1.707045    -1.194377
C     -0.416375      1.138509    -2.656319
H     -0.788331      2.744072    -1.195983
H     -0.877291      1.870471    -3.328295
C     -1.049814     -1.389419    -2.071300
H     -1.936576     -2.023681    -1.954475
H     -0.472142     -1.781483    -2.913845
C     -0.259701     -1.328702    -0.765319
C      0.137192     -2.550384     0.004448
H      0.675826     -0.807562    -0.991306
H      0.291471     -3.496143    -0.510321
C      0.373850     -2.448512     1.309135
C      0.215013     -1.178336     2.126041
H      0.702394     -3.321599     1.869705
H      1.200009     -0.945779     2.550430
C     -0.715764     -1.416137     3.310360
C     -0.462954     -0.789929     4.530031
C     -1.849232     -2.221033     3.201603
C     -1.314270     -0.961916     5.614444
H      0.415342     -0.157817     4.632590
C     -2.703215     -2.397088     4.283894
H     -2.060128     -2.723063     2.262918
C     -2.439784     -1.768113     5.494631
H     -1.095766     -0.466562     6.555606
H     -3.578529     -3.031152     4.180093
H     -3.107073     -1.906717     6.339321
C      0.902045      0.706585    -3.296472
H      1.458523      0.009157    -2.666944
H      0.672005      0.180433    -4.233043
C      1.767837      1.887019    -3.621232
C      3.022612      2.041132    -3.206048
H      1.321133      2.666145    -4.235860
H      3.518164      1.300190    -2.586469
C      3.864414      3.211679    -3.536457
O      5.002462      3.354135    -3.164795
O      3.239140      4.132414    -4.308685
H      3.878385      4.843768    -4.457520
49
 -1042.12400818 -1041.75491000  1.40 1.10
C     -2.194433      0.031243     0.035123
C     -1.203890     -0.636186    -0.975260
H     -3.176621      0.304480    -0.356956
H     -1.564567     -0.784677    -1.994388
C      0.080840      0.179311    -0.900817
C      1.376650     -0.612107    -1.015777
H      0.059348      0.963907    -1.667228
H      1.461350     -1.043515    -2.022181
C      1.339390     -1.761490    -0.032885
C      0.203570     -2.321665     0.380572
H      2.288317     -2.151288     0.330914
H      0.246776     -3.153507     1.081811
C     -1.157746     -1.925311    -0.117693
C     -2.218641     -1.302378     0.854692
H     -1.584590     -2.790799    -0.635953
H     -3.181115     -1.796766     0.689585
C     -1.449654      1.254268     0.607990
H     -1.663751      2.129923    -0.016320
H     -1.738965      1.503982     1.632938
C      0.016384      0.847496     0.475622
C      1.148900      1.814712     0.633429
H      0.189548      0.067430     1.223809
H      1.036396      2.691385     1.267506
C      2.316121      1.549480     0.053890
C      2.595385      0.347349    -0.830926
H      3.157167      2.225407     0.196076
H      3.403255     -0.221186    -0.352843
C      3.130699      0.792580    -2.187731
C      2.645431      1.931167    -2.829950
C      4.103812      0.031721    -2.834221
C      3.123252      2.299720    -4.081996
H      1.892990      2.541085    -2.340609
C      4.583668      0.395398    -4.086281
H      4.492829     -0.859708    -2.348888
C      4.093827      1.533417    -4.715679
H      2.735423      3.192189    -4.563734
H      5.343845     -0.210803    -4.569556
H      4.466570      1.822452    -5.693182
C     -1.960204     -1.313113     2.360738
H     -1.825097     -2.347997     2.694171
H     -1.034813     -0.782235     2.605364
C     -3.092009     -0.686611     3.118728
C     -3.830850     -1.315679     4.028952
H     -3.329048      0.348416     2.885512
H     -3.652250     -2.351108     4.301485
C     -4.955036     -0.687951     4.758107
O     -5.630917     -1.256204     5.578968
O     -5.168663      0.606495     4.421303
H     -5.918887      0.907269     4.953771
49
 -1042.12384668 -1041.75486000  1.50 1.14
C     -1.675934      1.340257     1.305148
C     -0.386081      0.517726     1.621534
H     -2.291302      1.625837     2.161306
H     -0.191204      0.285745     2.669945
C     -0.456231     -0.717944     0.732729
C      0.869711     -1.203282     0.164645
H     -0.941041     -1.533439     1.283605
H      1.510150     -1.570628     0.977772
C      1.586001     -0.036511    -0.477461
C      1.400086      1.226917    -0.098109
H      2.302969     -0.252984    -1.267342
H      1.970532      2.010788    -0.592838
C      0.506588      1.643301     1.037932
C     -0.777496      2.512399     0.789256
H      1.139297      2.113828     1.797992
H     -0.805008      3.323667     1.523254
C     -2.471996      0.509532     0.280451
H     -3.162091     -0.156558     0.811868
H     -3.066143      1.121846    -0.404530
C     -1.378659     -0.298352    -0.415928
C     -1.670867     -1.473029    -1.297689
H     -0.821309      0.406519    -1.040785
H     -2.614045     -1.532195    -1.836363
C     -0.735795     -2.401887    -1.474865
C      0.622433     -2.410308    -0.795892
H     -0.923362     -3.238343    -2.145389
H      1.377779     -2.369377    -1.591021
C      0.845833     -3.727567    -0.060809
C      2.116465     -4.300569    -0.031288
C     -0.185677     -4.368056     0.624879
C      2.354382     -5.481784     0.660355
H      2.932813     -3.814354    -0.559181
C      0.047183     -5.550467     1.317249
H     -1.183670     -3.942144     0.608384
C      1.317979     -6.112120     1.338362
H      3.351496     -5.911454     0.667123
H     -0.770307     -6.035989     1.841611
H      1.498624     -7.035779     1.878925
C     -1.038421      3.135866    -0.581647
H     -0.882660      2.404821    -1.381526
H     -2.082543      3.460781    -0.641851
C     -0.136643      4.306610    -0.834218
C     -0.556330      5.546139    -1.073625
H      0.933479      4.116647    -0.807072
H     -1.610769      5.801695    -1.110009
C      0.347606      6.691741    -1.319805
O     -0.028945      7.813211    -1.552266
O      1.662428      6.371322    -1.262515
H      2.150697      7.187923    -1.440300
49
 -1042.12178312 -1041.75158000  2.79 3.19
C     -1.136856      1.743796    -1.960620
C     -0.006305      2.042791    -0.922439
H     -1.762512      2.590663    -2.253036
H      0.087501      3.075236    -0.581072
C     -0.207886      1.045809     0.211168
C      1.063388      0.497574     0.844856
H     -0.839399      1.498488     0.985733
H      1.593421      1.301959     1.372578
C      1.983656     -0.003771    -0.245728
C      1.964647      0.476820    -1.487835
H      2.706508     -0.775040     0.014319
H      2.670718      0.087153    -2.219463
C      1.082826      1.607256    -1.937383
C     -0.034544      1.426950    -3.024295
H      1.744542      2.433549    -2.220282
H      0.023132      2.299423    -3.683203
C     -1.980231      0.606022    -1.354200
H     -2.798854      1.041745    -0.768612
H     -2.424281     -0.052039    -2.105133
C     -0.982670     -0.101489    -0.441278
C     -1.390981     -1.105031     0.590930
H     -0.289450     -0.626911    -1.103463
H     -2.294996     -1.694823     0.456019
C     -0.596946     -1.323882     1.635348
C      0.696396     -0.579468     1.915400
H     -0.864626     -2.080410     2.370544
H      1.499578     -1.327236     1.931057
C      0.665838      0.044512     3.306499
C      1.828909      0.090009     4.073972
C     -0.495084      0.613095     3.829430
C      1.836506      0.683504     5.330155
H      2.743568     -0.347190     3.681840
C     -0.492752      1.206934     5.086006
H     -1.412643      0.581620     3.250912
C      0.672839      1.245148     5.841515
H      2.753470      0.704616     5.911220
H     -1.408205      1.640553     5.477047
H      0.673358      1.708698     6.822897
C     -0.112189      0.225564    -3.977041
H     -1.025789      0.329407    -4.573761
H      0.728657      0.315297    -4.678920
C     -0.058383     -1.159946    -3.410930
C     -1.005115     -2.081335    -3.569009
H      0.835207     -1.452430    -2.867398
H     -1.927218     -1.889028    -4.108422
C     -0.832824     -3.430830    -2.986145
O      0.106122     -3.805156    -2.327860
O     -1.881738     -4.236491    -3.273701
H     -1.698310     -5.091688    -2.858219
49
 -1042.12070648 -1041.75062500  3.47 3.79
C     -2.303103     -1.497766     0.858431
C     -1.176870     -1.897753    -0.150148
H     -3.287459     -1.939811     0.685962
H     -1.449812     -2.601366    -0.938657
C     -0.606142     -0.587965    -0.677819
C      0.896818     -0.570838    -0.921321
H     -1.131419     -0.306969    -1.599080
H      1.148130     -1.249717    -1.747436
C      1.604492     -1.086665     0.311853
C      1.038603     -1.931553     1.172166
H      2.631135     -0.765915     0.479626
H      1.613016     -2.283235     2.027861
C     -0.332259     -2.519828     0.992573
C     -1.511858     -2.236025     1.987888
H     -0.200950     -3.601144     0.873542
H     -2.021276     -3.191034     2.152584
C     -2.366861      0.041397     0.835875
H     -3.097611      0.357889     0.081820
H     -2.667754      0.476709     1.792025
C     -0.952969      0.428987     0.411996
C     -0.582574      1.810290    -0.028651
H     -0.313860      0.213050     1.272111
H     -1.138814      2.670704     0.336826
C      0.480870      1.981192    -0.809067
C      1.343205      0.860141    -1.361207
H      0.782395      2.985031    -1.102126
H      2.361913      1.025596    -0.987885
C      1.425802      0.945815    -2.881566
C      0.325666      1.312739    -3.655936
C      2.613406      0.615892    -3.533103
C      0.412917      1.351746    -5.042450
H     -0.605787      1.580335    -3.167703
C      2.705195      0.652290    -4.918967
H      3.480955      0.326489    -2.945627
C      1.602607      1.021323    -5.679948
H     -0.453974      1.643959    -5.627352
H      3.641394      0.394000    -5.404487
H      1.669678      1.052644    -6.762773
C     -1.321660     -1.652224     3.394753
H     -2.315147     -1.499605     3.831759
H     -0.831082     -2.425826     4.002008
C     -0.519302     -0.397570     3.566292
C     -0.985298      0.721778     4.115939
H      0.521263     -0.427860     3.260276
H     -2.011528      0.817340     4.456320
C     -0.170401      1.938212     4.316150
O     -0.574168      2.947873     4.836976
O      1.098832      1.825333     3.854471
H      1.531646      2.671916     4.035225
49
 -1042.12040144 -1041.75020100  3.66 4.06
C     -2.156071     -0.873159    -1.816740
C     -0.610355     -0.751032    -2.025354
H     -2.773070     -0.804833    -2.716013
H     -0.261546     -0.625495    -3.051880
C     -0.149326      0.357322    -1.087540
C      1.207101      0.145896    -0.428072
H     -0.154541      1.315128    -1.622534
H      2.000002      0.176398    -1.187414
C      1.237678     -1.227222     0.205825
C      0.496896     -2.242536    -0.233532
H      1.907823     -1.383439     1.049194
H      0.569011     -3.206259     0.266231
C     -0.388854     -2.172132    -1.445031
C     -1.943676     -2.353097    -1.354745
H      0.023255     -2.868093    -2.184329
H     -2.238632     -2.982759    -2.200637
C     -2.529373      0.217973    -0.796381
H     -2.779763      1.139828    -1.335276
H     -3.394731     -0.041699    -0.179719
C     -1.234263      0.393180    -0.008184
C     -0.999525      1.532366     0.933040
H     -1.114244     -0.515305     0.590176
H     -1.837193      2.005140     1.441290
C      0.247176      1.909995     1.202011
C      1.491561      1.312636     0.570134
H      0.428199      2.710706     1.916573
H      2.106673      0.914443     1.387144
C      2.325736      2.396958    -0.103897
C      1.735058      3.461093    -0.784293
C      3.717540      2.317035    -0.080718
C      2.515164      4.419615    -1.420308
H      0.653477      3.545525    -0.808035
C      4.501526      3.271938    -0.716004
H      4.195243      1.493796     0.444279
C      3.901357      4.329014    -1.389480
H      2.035911      5.242853    -1.941444
H      5.583731      3.190747    -0.682170
H      4.509464      5.078358    -1.886146
C     -2.635568     -2.994792    -0.142830
H     -3.716397     -2.974355    -0.337411
H     -2.345896     -4.051842    -0.124620
C     -2.416729     -2.428882     1.228024
C     -1.781887     -3.062227     2.211208
H     -2.855258     -1.464762     1.465826
H     -1.329199     -4.040134     2.081096
C     -1.663315     -2.438271     3.548498
O     -2.070483     -1.347151     3.861802
O     -1.023757     -3.250919     4.422253
H     -0.985934     -2.777545     5.266136
49
 -1042.11937863 -1041.74916500  4.30 4.71
C      0.041457      2.403359    -1.684262
C      1.160493      1.366380    -1.337351
H      0.377979      3.409198    -1.947057
H      2.192028      1.717152    -1.401479
C      0.795489      0.800096     0.028873
C      1.087778     -0.680814     0.231902
H      1.292056      1.385619     0.812551
H      2.172610     -0.851847     0.222093
C      0.493773     -1.462271    -0.919138
C      0.302852     -0.936386    -2.127317
H      0.226227     -2.502598    -0.743308
H     -0.127044     -1.554424    -2.912708
C      0.722169      0.454043    -2.512563
C     -0.313251      1.548589    -2.946200
H      1.498972      0.353745    -3.278890
H      0.122435      2.074093    -3.802380
C     -0.900477      2.427614    -0.466382
H     -0.554296      3.193793     0.237840
H     -1.936269      2.668617    -0.723143
C     -0.714559      1.032991     0.125031
C     -1.220179      0.646080     1.479053
H     -1.184439      0.337625    -0.577238
H     -2.094559      1.138664     1.898992
C     -0.638829     -0.357473     2.130347
C      0.571833     -1.128526     1.636086
H     -1.026105     -0.671700     3.097702
H      0.274117     -2.182447     1.565112
C      1.700667     -1.071118     2.660058
C      1.959620      0.079528     3.403859
C      2.528895     -2.177742     2.842847
C      3.015183      0.120141     4.307148
H      1.322277      0.949245     3.281806
C      3.586012     -2.141571     3.743577
H      2.342338     -3.083106     2.270945
C      3.833149     -0.989642     4.480538
H      3.197745      1.024450     4.879766
H      4.216023     -3.016604     3.871307
H      4.656854     -0.956819     5.186529
C     -1.741668      1.209352    -3.396710
H     -2.248017      2.159388    -3.614967
H     -1.664031      0.675194    -4.350608
C     -2.644896      0.420966    -2.494429
C     -3.083621     -0.806016    -2.767530
H     -3.013939      0.907005    -1.597998
H     -2.777260     -1.344847    -3.658582
C     -4.019686     -1.557451    -1.904506
O     -4.446547     -2.655227    -2.162235
O     -4.366328     -0.897198    -0.773257
H     -4.975031     -1.477097    -0.293721
49
 -1042.11708180 -1041.74849500  5.74 5.13
C     -0.855405     -0.594475    -1.944448
C     -0.341637      0.789751    -1.426996
H     -1.591257     -0.568431    -2.751180
H     -0.749819      1.679184    -1.909712
C     -0.545772      0.772877     0.082706
C      0.537855      1.455510     0.906395
H     -1.522177      1.211289     0.323271
H      0.532278      2.535480     0.706989
C      1.888133      0.923972     0.478934
C      2.123522      0.449148    -0.743342
H      2.699516      0.953174     1.203884
H      3.121816      0.091359    -0.990254
C      1.106671      0.438906    -1.849877
C      0.590218     -0.913170    -2.453325
H      1.480930      1.088747    -2.648293
H      0.600956     -0.838610    -3.545285
C     -1.397035     -1.332483    -0.703332
H     -2.462400     -1.101541    -0.585023
H     -1.302273     -2.420497    -0.763876
C     -0.585876     -0.716965     0.434871
C     -0.939834     -0.896503     1.878992
H      0.433449     -1.102601     0.332074
H     -1.469293     -1.788461     2.206626
C     -0.531992      0.006965     2.765578
C      0.232394      1.274842     2.427650
H     -0.749123     -0.135242     3.822497
H      1.190397      1.222545     2.960529
C     -0.493602      2.500428     2.972157
C     -1.884546      2.596387     2.955771
C      0.238735      3.578266     3.468018
C     -2.524458      3.737220     3.425760
H     -2.473289      1.765628     2.580486
C     -0.396307      4.721123     3.937753
H      1.324044      3.521291     3.487381
C     -1.783372      4.804434     3.918209
H     -3.608798      3.790793     3.408183
H      0.194366      5.547104     4.322143
H     -2.284103      5.694607     4.285417
C      1.290768     -2.220657    -2.085034
H      2.346404     -2.154314    -2.371740
H      1.270428     -2.387436    -1.003557
C      0.659129     -3.394154    -2.768061
C      1.276637     -4.196788    -3.629280
H     -0.390013     -3.597219    -2.563574
H      2.324553     -4.042835    -3.882475
C      0.548881     -5.328333    -4.271267
O     -0.601967     -5.602130    -4.075015
O      1.284478     -6.074434    -5.136401
H      2.187794     -5.743751    -5.190930
