49
 -1042.12637679 -1041.75671700  0.00 0.00
C      2.182862     -0.291409     1.639926
C      1.685624     -0.913045     0.295135
H      3.225210     -0.479869     1.906300
H      2.412334     -1.487362    -0.282270
C      1.064771      0.236513    -0.488212
C     -0.173654     -0.108879    -1.302687
H      1.823564      0.683700    -1.142386
H      0.097844     -0.793353    -2.117492
C     -1.161938     -0.832478    -0.415155
C     -0.792062     -1.552276     0.643373
H     -2.216336     -0.773462    -0.678221
H     -1.551254     -2.062331     1.232212
C      0.638579     -1.773883     1.048035
C      1.183080     -1.215560     2.408813
H      0.840341     -2.847340     0.969097
H      1.752514     -2.004174     2.912175
C      1.879499      1.216617     1.550471
H      2.744469      1.733916     1.118549
H      1.672985      1.674093     2.522766
C      0.693552      1.261694     0.588486
C      0.206794      2.526012    -0.049378
H     -0.164329      0.861339     1.137749
H      0.347157      3.481895     0.450762
C     -0.465055      2.460152    -1.195254
C     -0.741520      1.184267    -1.969264
H     -0.857461      3.368961    -1.647128
H     -1.831787      1.077986    -2.037043
C     -0.235221      1.309134    -3.401660
C      0.954138      1.970179    -3.706180
C     -0.950477      0.720189    -4.443582
C      1.413286      2.041416    -5.016182
H      1.522432      2.442342    -2.911397
C     -0.495437      0.787871    -5.754378
H     -1.879149      0.199978    -4.223833
C      0.690834      1.450730    -6.045628
H      2.340540      2.563167    -5.232768
H     -1.070884      0.324273    -6.549934
H      1.049866      1.507666    -7.068286
C      0.221186     -0.625974     3.439111
H     -0.433575      0.132609     3.005013
H      0.814069     -0.128940     4.218912
C     -0.612378     -1.687516     4.088751
C     -1.941909     -1.697906     4.125750
H     -0.087798     -2.513910     4.566795
H     -2.542237     -0.916379     3.670304
C     -2.667333     -2.794248     4.808951
O     -2.168313     -3.744537     5.358208
O     -4.007659     -2.611740     4.754031
H     -4.409764     -3.360127     5.218641
49
 -1042.12512071 -1041.75598100  0.79 0.46
C     -0.339476     -0.998306    -1.914918
C     -1.087165      0.206357    -1.254656
H     -0.380540     -1.057674    -3.004535
H     -1.598586      0.897374    -1.926990
C     -0.067449      0.886107    -0.350144
C     -0.606012      1.428532     0.966403
H      0.433582      1.690271    -0.903138
H     -1.299860      2.256913     0.770793
C     -1.386595      0.337292     1.664804
C     -1.994635     -0.648105     1.005759
H     -1.462179      0.380943     2.749485
H     -2.549939     -1.398573     1.566539
C     -2.026680     -0.761140    -0.492342
C     -1.346061     -1.973461    -1.217064
H     -3.071516     -0.669715    -0.808161
H     -2.035935     -2.363847    -1.971654
C      1.113952     -0.922385    -1.404036
H      1.706167     -0.312594    -2.096714
H      1.602807     -1.897683    -1.326301
C      0.960780     -0.212164    -0.060818
C      2.118814      0.352928     0.702119
H      0.487752     -0.932944     0.613845
H      3.109882     -0.083465     0.597546
C      1.909122      1.342920     1.565136
C      0.569638      2.012484     1.811876
H      2.736788      1.734322     2.153242
H      0.326975      1.867822     2.872459
C      0.678139      3.518302     1.600852
C      1.467401      4.064684     0.589547
C     -0.054621      4.385708     2.410094
C      1.523114      5.439898     0.395097
H      2.052039      3.408170    -0.046654
C     -0.002999      5.760722     2.219261
H     -0.675760      3.976617     3.202689
C      0.788381      6.293585     1.208671
H      2.145917      5.845667    -0.396357
H     -0.579985      6.416984     2.863756
H      0.833264      7.367262     1.056429
C     -0.853502     -3.167067    -0.400529
H     -1.695611     -3.596871     0.153152
H     -0.118117     -2.855127     0.347987
C     -0.240800     -4.217335    -1.275252
C     -0.650670     -5.479857    -1.354069
H      0.596023     -3.923193    -1.905920
H     -1.481320     -5.861626    -0.768589
C      0.030232     -6.437297    -2.257505
O      0.958597     -6.191860    -2.986571
O     -0.518846     -7.672328    -2.176468
H     -0.024506     -8.237247    -2.788156
49
 -1042.12504893 -1041.75589600  0.83 0.52
C      2.048274     -0.919742     1.022718
C      1.348782     -1.008939    -0.370869
H      3.074734     -1.289251     1.075408
H      1.932351     -1.430820    -1.190990
C      0.824448      0.391772    -0.660458
C     -0.517783      0.463551    -1.373624
H      1.575960      0.950727    -1.231822
H     -0.418810      0.063411    -2.391543
C     -1.511204     -0.409825    -0.640916
C     -1.149163     -1.472676     0.076434
H     -2.567273     -0.163504    -0.732130
H     -1.922478     -2.067923     0.558609
C      0.267483     -1.961049     0.203438
C      1.009869     -1.944594     1.586478
H      0.310974     -2.962262    -0.238329
H      1.511280     -2.906989     1.728818
C      1.949207      0.555111     1.457561
H      2.834132      1.096741     1.102776
H      1.897327      0.683100     2.542999
C      0.698038      1.035353     0.724588
C      0.335890      2.482057     0.589502
H     -0.152849      0.565616     1.227746
H      0.652485      3.199215     1.343827
C     -0.439499      2.867625    -0.419869
C     -0.959786      1.954667    -1.514944
H     -0.740916      3.909713    -0.505261
H     -2.055866      1.987627    -1.468667
C     -0.574220      2.494492    -2.887377
C      0.663040      3.093770    -3.120588
C     -1.457056      2.360457    -3.958194
C      1.005936      3.547673    -4.388809
H      1.362024      3.215225    -2.299450
C     -1.118742      2.811748    -5.227747
H     -2.425370      1.894775    -3.794311
C      0.116916      3.408623    -5.447552
H      1.973307      4.013966    -4.549107
H     -1.823633      2.699395    -6.045959
H      0.385379      3.764141    -6.437254
C      0.245950     -1.637713     2.874608
H     -0.396198     -0.760224     2.748126
H      0.957972     -1.404348     3.673483
C     -0.613928     -2.790821     3.293711
C     -0.498036     -3.451264     4.441947
H     -1.381879     -3.123512     2.597877
H      0.243253     -3.190708     5.190986
C     -1.393319     -4.592069     4.749564
O     -2.276028     -5.015081     4.045686
O     -1.105835     -5.137004     5.955128
H     -1.725135     -5.870238     6.083748
49
 -1042.12538987 -1041.75570900  0.62 0.63
C      2.029019     -1.477579    -1.010551
C      0.712377     -0.828992    -1.547308
H      2.739299     -1.828585    -1.762385
H      0.596728     -0.770090    -2.631061
C      0.604001      0.523115    -0.854131
C     -0.801987      0.958651    -0.466955
H      1.068821      1.293149    -1.482356
H     -1.395985      1.140708    -1.372571
C     -1.473013     -0.161837     0.296087
C     -1.154761     -1.444591     0.127026
H     -2.264990      0.103916     0.993628
H     -1.685899     -2.204585     0.695880
C     -0.140305     -1.932278    -0.869282
C      1.178348     -2.634834    -0.392226
H     -0.666865     -2.562572    -1.593683
H      1.332952     -3.539741    -0.989640
C      2.662754     -0.437362    -0.066846
H      3.342352      0.203937    -0.640596
H      3.240890     -0.887314     0.745919
C      1.450952      0.359984     0.412449
C      1.566270      1.670432     1.127799
H      0.898588     -0.297054     1.091507
H      2.448027      1.893666     1.724645
C      0.548397      2.525480     1.088028
C     -0.737367      2.311547     0.310550
H      0.605913      3.463360     1.636826
H     -1.559499      2.322419     1.037565
C     -0.989130      3.479911    -0.635614
C      0.049884      4.107463    -1.321840
C     -2.292368      3.921711    -0.860181
C     -0.207972      5.148630    -2.205854
H      1.072508      3.784541    -1.155898
C     -2.555411      4.961315    -1.743274
H     -3.114354      3.442959    -0.334370
C     -1.511260      5.579910    -2.420433
H      0.615428      5.625961    -2.728447
H     -3.578192      5.290473    -1.899943
H     -1.711387      6.393534    -3.110318
C      1.355190     -3.025637     1.074004
H      1.158345     -2.191168     1.750209
H      2.401489     -3.322890     1.228040
C      0.480394     -4.184471     1.447356
C     -0.388412     -4.181519     2.455333
H      0.575873     -5.084011     0.842366
H     -0.529422     -3.312723     3.090854
C     -1.236086     -5.337943     2.819010
O     -2.011366     -5.345141     3.742322
O     -1.066464     -6.413566     2.013189
H     -1.662306     -7.100282     2.345163
49
 -1042.12413379 -1041.75497400  1.41 1.09
C     -1.388838     -0.230248    -1.681873
C     -1.393607      0.790274    -0.496721
H     -1.870546      0.096099    -2.605986
H     -1.879547      1.750985    -0.675561
C      0.057165      0.920150    -0.051288
C      0.280172      1.067462     1.447408
H      0.528128      1.758961    -0.578615
H     -0.132862      2.024826     1.792036
C     -0.466347     -0.034448     2.165919
C     -1.562352     -0.605439     1.668112
H     -0.092613     -0.351971     3.137336
H     -2.060287     -1.387397     2.239617
C     -2.213040     -0.190583     0.378682
C     -2.293599     -1.184130    -0.831596
H     -3.210209      0.192944     0.620232
H     -3.308975     -1.159606    -1.239177
C      0.090741     -0.600716    -1.911895
H      0.524033      0.090623    -2.644473
H      0.234546     -1.615302    -2.294453
C      0.710124     -0.379129    -0.533678
C      2.188430     -0.331802    -0.299643
H      0.337186     -1.188110     0.102678
H      2.864765     -0.879554    -0.952418
C      2.659638      0.323036     0.757692
C      1.812065      1.100735     1.747747
H      3.729032      0.330693     0.958722
H      1.972240      0.648480     2.734891
C      2.300784      2.540744     1.854039
C      2.759133      3.246270     0.742152
C      2.260467      3.196926     3.083699
C      3.167240      4.569980     0.858105
H      2.806336      2.752280    -0.222883
C      2.666391      4.519898     3.204615
H      1.905095      2.662045     3.960612
C      3.122570      5.212356     2.089274
H      3.523412      5.101058    -0.019404
H      2.629045      5.009474     4.173057
H      3.442196      6.245692     2.178857
C     -1.926840     -2.653530    -0.631823
H     -2.571205     -3.083931     0.142605
H     -0.898211     -2.757632    -0.272042
C     -2.077068     -3.436676    -1.901262
C     -2.864440     -4.499223    -2.045205
H     -1.506413     -3.095291    -2.761297
H     -3.465443     -4.888012    -1.229086
C     -3.001777     -5.260638    -3.306597
O     -3.702355     -6.233097    -3.437274
O     -2.259374     -4.766081    -4.325926
H     -2.424991     -5.339448    -5.087913
49
 -1042.12413379 -1041.75496600  1.41 1.10
C      0.104457     -0.354536    -2.476244
C     -0.848631      0.367006    -1.471066
H     -0.041914     -0.125372    -3.534050
H     -1.589540      1.047840    -1.893742
C      0.059779      1.026489    -0.441191
C     -0.451281      1.025017     0.992025
H      0.277556      2.055263    -0.753954
H     -1.345650      1.657856     1.067511
C     -0.861923     -0.381258     1.366280
C     -1.271188     -1.278351     0.470205
H     -0.842125     -0.652039     2.420104
H     -1.573050     -2.265118     0.816809
C     -1.423492     -0.993763    -0.998593
C     -0.529970     -1.723362    -2.063424
H     -2.483298     -1.111952    -1.248318
H     -1.169147     -2.072444    -2.880405
C      1.538209     -0.030153    -2.014467
H      1.881701      0.882526    -2.515795
H      2.256065     -0.823163    -2.244750
C      1.358464      0.216438    -0.517712
C      2.411974      0.849805     0.337444
H      1.162224     -0.760954    -0.066012
H      3.463300      0.749922     0.076133
C      2.054739      1.469686     1.458528
C      0.625209      1.649238     1.935592
H      2.815505      1.899260     2.107209
H      0.546364      1.153826     2.911800
C      0.325635      3.123756     2.179863
C      0.827678      4.123575     1.347651
C     -0.501287      3.497150     3.238572
C      0.512717      5.459022     1.570001
H      1.479560      3.855684     0.522498
C     -0.819657      4.830336     3.464513
H     -0.902152      2.730482     3.896502
C     -0.312062      5.818094     2.628940
H      0.916015      6.222779     0.912010
H     -1.463197      5.097826     4.297141
H     -0.556727      6.861217     2.802164
C      0.364275     -2.894497    -1.656983
H      0.924831     -2.660975    -0.746109
H      1.097558     -3.085281    -2.447745
C     -0.435565     -4.137862    -1.406929
C     -0.289600     -5.277692    -2.077266
H     -1.195431     -4.084286    -0.631154
H      0.446798     -5.391477    -2.866644
C     -1.095953     -6.493378    -1.827782
O     -0.970823     -7.525529    -2.438087
O     -2.007059     -6.349763    -0.835897
H     -2.469889     -7.196885    -0.765174
49
 -1042.12081415 -1041.75060300  3.49 3.84
C      2.687795      0.869374     0.834674
C      2.043321     -0.552294     0.731702
H      3.776454      0.914394     0.754020
H      2.727568     -1.393335     0.605548
C      0.992342     -0.454960    -0.366072
C     -0.283900     -1.251802    -0.133476
H      1.437388     -0.741544    -1.327083
H     -0.060465     -2.326843    -0.154489
C     -0.825175     -0.924784     1.240519
C     -0.048105     -0.522333     2.244398
H     -1.894503     -1.039896     1.405899
H     -0.499066     -0.306567     3.211036
C      1.448379     -0.419960     2.157700
C      2.201064      0.946665     2.318756
H      1.861140     -1.156640     2.855942
H      3.080793      0.748200     2.939742
C      2.010019      1.718167    -0.256925
H      2.590175      1.635015    -1.183897
H      1.950589      2.781109    -0.005483
C      0.652572      1.037689    -0.411178
C     -0.283694      1.327268    -1.541884
H      0.093011      1.264610     0.501771
H     -0.278166      2.303394    -2.022429
C     -1.175148      0.408571    -1.903350
C     -1.291109     -0.976049    -1.293816
H     -1.886040      0.625571    -2.698130
H     -2.306324     -1.066203    -0.886618
C     -1.166909     -2.047495    -2.370959
C     -0.292458     -1.911170    -3.448376
C     -1.916085     -3.219352    -2.271187
C     -0.172667     -2.917900    -4.399365
H      0.294095     -1.003885    -3.549641
C     -1.799340     -4.228711    -3.218355
H     -2.602183     -3.342455    -1.437214
C     -0.925056     -4.080653    -4.288535
H      0.512125     -2.791046    -5.232374
H     -2.395253     -5.131194    -3.121497
H     -0.831234     -4.865689    -5.032099
C      1.555783      2.185887     2.957097
H      2.295532      2.996397     2.908659
H      1.407217      1.966025     4.020737
C      0.267301      2.721883     2.408657
C     -0.888893      2.722864     3.067653
H      0.278540      3.199950     1.434150
H     -0.999018      2.291847     4.057662
C     -2.097657      3.316558     2.452783
O     -2.165169      3.816354     1.357338
O     -3.167246      3.236160     3.278704
H     -3.912338      3.638812     2.809283
49
 -1042.12072443 -1041.75057700  3.55 3.85
C     -1.536035      0.983483    -2.218553
C     -0.481581     -0.170306    -2.175085
H     -2.330092      0.886542    -2.962826
H     -0.604810     -0.976136    -2.901040
C     -0.453882     -0.654465    -0.731581
C      0.911990     -1.058424    -0.194860
H     -1.158010     -1.487314    -0.611987
H      1.266684     -1.955839    -0.719365
C      1.903191      0.047965    -0.478662
C      1.768829      0.895857    -1.497432
H      2.773996      0.126988     0.169378
H      2.532872      1.654602    -1.661965
C      0.662938      0.820987    -2.511945
C     -0.405767      1.958687    -2.683202
H      1.132175      0.605105    -3.478277
H     -0.539170      2.100952    -3.760468
C     -2.112001      1.087761    -0.793559
H     -2.997383      0.445060    -0.717689
H     -2.414183      2.102483    -0.522765
C     -0.975459      0.543190     0.067145
C     -1.145243      0.173048     1.507051
H     -0.196960      1.310569     0.050191
H     -1.902533      0.663796     2.114743
C     -0.312020     -0.706193     2.056621
C      0.793362     -1.435604     1.315883
H     -0.402058     -0.953194     3.112572
H      1.739652     -1.170780     1.804842
C      0.638496     -2.943660     1.475131
C     -0.613207     -3.558198     1.478823
C      1.771270     -3.749194     1.585074
C     -0.727713     -4.938848     1.591127
H     -1.508103     -2.949207     1.402542
C      1.662207     -5.129613     1.696773
H      2.754973     -3.286914     1.583012
C      0.409042     -5.730372     1.700443
H     -1.711785     -5.397697     1.594632
H      2.558420     -5.736352     1.784253
H      0.318351     -6.808301     1.788885
C     -0.248242      3.379054    -2.123381
H     -1.174757      3.925647    -2.332767
H      0.540906      3.873733    -2.706956
C      0.106868      3.564799    -0.678797
C     -0.628706      4.253327     0.191129
H      1.050934      3.149260    -0.342009
H     -1.576476      4.706846    -0.081740
C     -0.242905      4.471961     1.601004
O     -0.884532      5.123637     2.386741
O      0.918153      3.865234     1.948154
H      1.068305      4.076037     2.880764
49
 -1042.11982723 -1041.74960600  4.11 4.46
C     -0.708388      2.618626     1.103355
C      0.273556      1.513921     1.615816
H     -0.487796      3.643270     1.411822
H      1.092689      1.844820     2.256921
C      0.738853      0.761828     0.376081
C      0.928778     -0.739343     0.544849
H      1.665582      1.212127    -0.000858
H      1.763446     -0.934090     1.231477
C     -0.319616     -1.326982     1.164659
C     -1.135478     -0.623495     1.947591
H     -0.542047     -2.373170     0.964461
H     -2.016803     -1.105850     2.365660
C     -0.877224      0.795840     2.367705
C     -1.837393      1.970437     1.969869
H     -0.729766      0.787031     3.453420
H     -1.941535      2.603222     2.857373
C     -0.725214      2.487246    -0.430889
H      0.055496      3.131898    -0.852313
H     -1.674722      2.790693    -0.881794
C     -0.377415      1.016047    -0.641325
C     -0.011343      0.444268    -1.974756
H     -1.248859      0.446453    -0.303808
H     -0.401572      0.888797    -2.887938
C      0.732226     -0.657221    -2.031416
C      1.313963     -1.374918    -0.827850
H      0.970265     -1.102060    -2.995558
H      0.925479     -2.401278    -0.844175
C      2.828791     -1.490286    -0.953523
C      3.602168     -0.470412    -1.506575
C      3.478394     -2.626998    -0.473585
C      4.985526     -0.585786    -1.578753
H      3.116360      0.419417    -1.893436
C      4.860605     -2.746735    -0.542541
H      2.890890     -3.431431    -0.038689
C      5.620615     -1.723811    -1.097114
H      5.569456      0.218659    -2.015598
H      5.344144     -3.642663    -0.165079
H      6.700749     -1.813052    -1.154720
C     -3.279780      1.747320     1.491920
H     -3.696062      2.734440     1.248922
H     -3.853783      1.371358     2.346695
C     -3.549141      0.849643     0.319828
C     -4.214771     -0.300782     0.399999
H     -3.237325      1.191099    -0.661049
H     -4.579130     -0.694116     1.343696
C     -4.523778     -1.155551    -0.765934
O     -5.142755     -2.188406    -0.704372
O     -4.043927     -0.672804    -1.937395
H     -4.302407     -1.307218    -2.621077
