49
 -1042.12967849 -1041.76133900  0.00 0.00
C     -0.811473     -0.925019    -1.443096
C      0.338280     -1.134583    -0.406154
H     -1.355950     -1.816748    -1.762835
H      0.479506     -2.139784    -0.004739
C      0.101825     -0.081581     0.670175
C      1.351988      0.545691     1.268844
H     -0.509207     -0.515574     1.471604
H      1.903114     -0.211581     1.842390
C      2.260980      1.011479     0.153668
C      2.267009      0.454571    -1.056568
H      2.956687      1.819278     0.371743
H      2.957370      0.828476    -1.811506
C      1.387308     -0.694223    -1.455835
C      0.239831     -0.440328    -2.485457
H      2.020261     -1.525982    -1.785673
H      0.128069      0.617357    -2.746363
C     -1.727209      0.164710    -0.861021
H     -2.238574      0.741466    -1.638498
H     -2.490676     -0.286305    -0.215722
C     -0.738011      0.989516    -0.035646
C     -1.168188      2.036797     0.943644
H     -0.090267      1.502224    -0.757748
H     -2.094367      2.585242     0.785512
C     -0.373907      2.344558     1.964989
C      0.948448      1.668422     2.276348
H     -0.662646      3.133116     2.657146
H      1.722895      2.445426     2.243994
C      0.946583      1.127232     3.701413
C     -0.188201      0.544474     4.264479
C      2.113304      1.174740     4.463241
C     -0.156572      0.025972     5.553710
H     -1.109034      0.504383     3.691701
C      2.150311      0.657275     5.751973
H      3.007410      1.624561     4.039487
C      1.012438      0.080054     6.302825
H     -1.051774     -0.421369     5.974940
H      3.069523      0.708181     6.327665
H      1.035831     -0.324344     7.309749
C      0.315022     -1.265707    -3.768715
H      1.193545     -0.950627    -4.347115
H      0.451012     -2.325915    -3.525316
C     -0.910231     -1.085921    -4.609779
C     -1.737679     -2.061541    -4.974800
H     -1.148587     -0.074040    -4.935133
H     -1.577881     -3.097770    -4.693200
C     -2.929863     -1.766478    -5.803233
O     -3.268398     -0.680347    -6.202706
O     -3.631976     -2.890331    -6.081685
H     -4.387878     -2.619103    -6.622697
49
 -1042.12966054 -1041.76128300  0.01 0.04
C     -0.494456      1.568114    -1.795423
C     -0.140320      1.351813    -0.289273
H     -0.541441      2.603895    -2.141202
H      0.108623      2.234761     0.302228
C      0.954187      0.291219    -0.282951
C      0.902369     -0.706999     0.864334
H      1.934733      0.783527    -0.295121
H      1.114287     -0.189922     1.809762
C     -0.494579     -1.277528     0.969007
C     -1.578362     -0.616461     0.565811
H     -0.607214     -2.260753     1.421434
H     -2.559191     -1.076470     0.679079
C     -1.547090      0.762045    -0.026589
C     -1.896090      0.936099    -1.538529
H     -2.171910      1.421504     0.586393
H     -2.036192     -0.018043    -2.057590
C      0.493541      0.705968    -2.599591
H      0.080433      0.370989    -3.556451
H      1.408788      1.273883    -2.805980
C      0.774268     -0.435574    -1.620739
C      1.876520     -1.428476    -1.821046
H     -0.150811     -1.022569    -1.562325
H      2.200467     -1.690132    -2.826136
C      2.403202     -2.044092    -0.766342
C      2.019623     -1.781991     0.678277
H      3.176478     -2.796456    -0.908742
H      1.648703     -2.729326     1.090004
C      3.251586     -1.414421     1.497396
C      4.268280     -0.614558     0.976869
C      3.362979     -1.850914     2.816848
C      5.365825     -0.263424     1.754066
H      4.205264     -0.270576    -0.050421
C      4.457550     -1.502129     3.598034
H      2.579025     -2.474286     3.238944
C      5.465210     -0.705488     3.067616
H      6.148184      0.358118     1.329165
H      4.524258     -1.856361     4.622260
H      6.323091     -0.431416     3.673346
C     -3.089385      1.843555    -1.833499
H     -2.946332      2.818917    -1.353701
H     -3.139101      2.018659    -2.916301
C     -4.378450      1.231988    -1.378607
C     -5.214121      1.776494    -0.498312
H     -4.641793      0.257852    -1.788909
H     -5.028416      2.742232    -0.038603
C     -6.454953      1.070272    -0.102536
O     -6.827007     -0.000344    -0.513809
O     -7.160880      1.779386     0.809673
H     -7.949380      1.257420     1.018179
49
 -1042.12944521 -1041.76096300  0.15 0.24
C     -1.754625     -0.085159     0.901494
C     -0.347563     -0.716535     1.147483
H     -2.412991     -0.014022     1.771157
H     -0.082094     -0.974053     2.174494
C      0.639648      0.241094     0.490718
C      1.836193     -0.406210    -0.190529
H      0.991068      0.964934     1.236743
H      2.480423     -0.872475     0.566907
C      1.354688     -1.508324    -1.107273
C      0.218126     -2.173934    -0.906550
H      1.989425     -1.780079    -1.948325
H     -0.063632     -2.967214    -1.597668
C     -0.712213     -1.917563     0.242821
C     -2.103199     -1.269043    -0.051186
H     -0.836066     -2.845413     0.813018
H     -2.215875     -0.956139    -1.093717
C     -1.510060      1.268858     0.215062
H     -2.339758      1.564939    -0.435067
H     -1.368662      2.055740     0.965780
C     -0.206507      0.998867    -0.539145
C      0.605206      2.083186    -1.176643
H     -0.458907      0.299450    -1.345842
H      0.119548      2.983007    -1.548185
C      1.911256      1.905360    -1.353582
C      2.695329      0.687450    -0.900888
H      2.499648      2.672799    -1.852676
H      3.138775      0.238160    -1.798671
C      3.861525      1.106162    -0.012997
C      3.742555      2.137982     0.917439
C      5.075410      0.425308    -0.094497
C      4.808622      2.479667     1.741206
H      2.808981      2.686227     0.991697
C      6.143764      0.762508     0.727096
H      5.185198     -0.382361    -0.813485
C      6.013505      1.793607     1.649674
H      4.696541      3.287979     2.457455
H      7.080695      0.220131     0.643705
H      6.845632      2.061782     2.292816
C     -3.317707     -2.105302     0.348203
H     -3.363793     -3.016037    -0.259046
H     -3.206305     -2.417707     1.395527
C     -4.589656     -1.328548     0.203963
C     -5.601368     -1.659704    -0.593406
H     -4.684896     -0.409670     0.780720
H     -5.590289     -2.554641    -1.207738
C     -6.805531     -0.800303    -0.677556
O     -6.995970      0.221515    -0.066428
O     -7.711821     -1.299112    -1.551364
H     -8.462273     -0.687165    -1.552713
49
 -1042.12869157 -1041.76034300  0.62 0.62
C     -1.808679     -0.318246     0.568124
C     -0.383559     -0.897701     0.841196
H     -2.522634     -0.354630     1.394447
H     -0.159817     -1.231185     1.856202
C      0.583547      0.161754     0.325925
C      1.849075     -0.362760    -0.335987
H      0.853582      0.834985     1.149241
H      2.475443     -0.862132     0.415308
C      1.478629     -1.400914    -1.371291
C      0.370857     -2.137042    -1.295099
H      2.171052     -1.564238    -2.194687
H      0.169808     -2.878548    -2.067158
C     -0.630946     -2.032387    -0.182281
C     -2.040788     -1.434678    -0.493296
H     -0.728520     -3.012348     0.298795
H     -2.122726     -1.045340    -1.513598
C     -1.600732      1.100316     0.011922
H     -2.409400      1.410783    -0.657619
H     -1.543339      1.824871     0.833153
C     -0.245988      0.962224    -0.684957
C      0.538172      2.136520    -1.181918
H     -0.416325      0.323222    -1.560500
H      0.024261      3.038689    -1.506858
C      1.859873      2.041297    -1.294988
C      2.684516      0.831021    -0.897581
H      2.430958      2.877475    -1.693662
H      3.203757      0.484632    -1.800329
C      3.772009      1.230349     0.093181
C      3.543148      2.173052     1.094826
C      5.023591      0.618906     0.033420
C      4.539064      2.495863     2.009115
H      2.578612      2.666754     1.154371
C      6.022073      0.937501     0.945276
H      5.218769     -0.119006    -0.740354
C      5.782442      1.879684     1.938384
H      4.341657      3.234553     2.780028
H      6.990179      0.450541     0.877391
H      6.559696      2.133098     2.652274
C     -3.221749     -2.362794    -0.215800
H     -3.189860     -3.205675    -0.918790
H     -3.141464     -2.780246     0.794516
C     -4.529797     -1.649402    -0.373602
C     -5.435195     -1.507041     0.591492
H     -4.731825     -1.211282    -1.349067
H     -5.289545     -1.920107     1.584835
C     -6.717789     -0.789689     0.422334
O     -7.544970     -0.666421     1.290785
O     -6.892877     -0.270889    -0.816804
H     -7.756241      0.166611    -0.810313
49
 -1042.12867362 -1041.76028900  0.63 0.66
C      0.273629      1.630826     1.791595
C      0.053824      0.131554     1.411213
H      0.427424      1.847066     2.851872
H      0.140135     -0.608991     2.208440
C      0.994972     -0.127292     0.240695
C      0.467452     -1.060377    -0.839324
H      1.949021     -0.512208     0.622274
H      0.367365     -2.074686    -0.430323
C     -0.913332     -0.608850    -1.260474
C     -1.732769      0.062829    -0.453305
H     -1.250225     -0.875888    -2.260125
H     -2.720715      0.349501    -0.811400
C     -1.393449      0.441848     0.958536
C     -1.169910      1.949714     1.296801
H     -2.145430      0.009543     1.628391
H     -1.185103      2.593410     0.410837
C      1.417175      2.140091     0.897803
H      1.347226      3.213058     0.692169
H      2.384680      1.949537     1.377811
C      1.248978      1.265981    -0.346318
C      2.275654      1.188845    -1.433002
H      0.323393      1.599860    -0.831707
H      2.915145      2.043713    -1.642394
C      2.347973      0.097373    -2.189463
C      1.496902     -1.146161    -2.010426
H      3.064919      0.051498    -3.006874
H      0.936257     -1.289692    -2.942966
C      2.381220     -2.377500    -1.850678
C      3.571497     -2.338209    -1.125397
C      1.985312     -3.592985    -2.407277
C      4.344257     -3.482179    -0.963610
H      3.902163     -1.400561    -0.690558
C      2.753692     -4.739316    -2.247844
H      1.059667     -3.641772    -2.974843
C      3.938857     -4.687319    -1.523894
H      5.269268     -3.429961    -0.397427
H      2.426877     -5.674202    -2.692980
H      4.543427     -5.579817    -1.397710
C     -2.111592      2.529171     2.350777
H     -2.078054      1.918845     3.260760
H     -1.762769      3.534694     2.621028
C     -3.519929      2.622342     1.846611
C     -4.566977      2.027382     2.413394
H     -3.676929      3.208118     0.942986
H     -4.472144      1.427894     3.313389
C     -5.948768      2.115008     1.892698
O     -6.899708      1.574386     2.399600
O     -6.062391      2.870011     0.773703
H     -6.998165      2.853871     0.526939
49
 -1042.12844035 -1041.75992900  0.78 0.88
C     -0.192623      1.966806     0.076027
C      0.754793      0.912165     0.731027
H      0.200491      2.983032    -0.011943
H      1.766436      1.232307     0.987222
C      0.720831     -0.290267    -0.204935
C      0.769071     -1.654097     0.467722
H      1.543307     -0.209264    -0.926721
H      1.750198     -1.794122     0.940925
C     -0.268687     -1.707545     1.566427
C     -0.699657     -0.623746     2.210453
H     -0.650523     -2.684969     1.854436
H     -1.439037     -0.733686     3.002632
C     -0.211562      0.767545     1.930617
C     -1.191502      1.782769     1.258983
H      0.203808      1.190307     2.852654
H     -2.135355      1.323299     0.950042
C     -0.641295      1.372651    -1.269369
H     -1.629680      1.729807    -1.576453
H      0.074767      1.633592    -2.057982
C     -0.596918     -0.127481    -0.971640
C     -0.706446     -1.172892    -2.037541
H     -1.418685     -0.325116    -0.272131
H     -1.274037     -0.972267    -2.943724
C     -0.169719     -2.372781    -1.835324
C      0.622579     -2.778429    -0.606204
H     -0.280568     -3.149711    -2.589214
H      0.090913     -3.619883    -0.143815
C      1.993416     -3.309629    -1.009112
C      2.726304     -2.737425    -2.048326
C      2.560424     -4.371685    -0.306076
C      3.989562     -3.215867    -2.375620
H      2.300199     -1.914944    -2.613670
C      3.823017     -4.853135    -0.628829
H      2.003459     -4.828818     0.507650
C      4.543270     -4.275478    -1.667498
H      4.543008     -2.758221    -3.189992
H      4.243166     -5.683362    -0.069214
H      5.529446     -4.648876    -1.924441
C     -1.496421      3.039347     2.072118
H     -2.039627      2.774374     2.985798
H     -0.549613      3.504307     2.379248
C     -2.288151      4.030534     1.274356
C     -3.500411      4.470153     1.602967
H     -1.835969      4.391454     0.353050
H     -4.007086      4.143335     2.505625
C     -4.277529      5.432996     0.792071
O     -5.378663      5.829618     1.081627
O     -3.637533      5.842739    -0.329518
H     -4.235173      6.460561    -0.774385
49
 -1042.12822502 -1041.75975000  0.91 1.00
C     -1.747630     -1.005992     1.258848
C     -0.487962     -0.093641     1.396855
H     -2.351115     -1.143464     2.159797
H     -0.329668      0.407755     2.353461
C     -0.556455      0.866691     0.215532
C      0.777295      1.230527    -0.420156
H     -1.076182      1.782542     0.523897
H      1.371533      1.822658     0.288618
C      1.555305     -0.033736    -0.709845
C      1.394635     -1.158549    -0.014748
H      2.295558     -0.001102    -1.506713
H      1.993383     -2.032597    -0.268339
C      0.437227     -1.305557     1.131558
C     -0.817969     -2.217517     0.944021
H      0.999202     -1.598787     2.026035
H     -0.926355     -2.585065    -0.080869
C     -2.551754     -0.455367     0.068875
H     -3.139738     -1.227586    -0.437384
H     -3.241131      0.327118     0.408476
C     -1.443854      0.140434    -0.801934
C     -1.717938      1.029465    -1.974758
H     -0.874845     -0.710259    -1.197238
H     -2.639823      0.917999    -2.541581
C     -0.793850      1.903050    -2.364286
C      0.536340      2.133622    -1.671168
H     -0.970517      2.523695    -3.240564
H      1.323541      1.913241    -2.403481
C      0.696130      3.604187    -1.302803
C     -0.376304      4.366540    -0.841107
C      1.949428      4.208889    -1.388814
C     -0.199653      5.696485    -0.477891
H     -1.362019      3.917649    -0.774056
C      2.131371      5.537622    -1.026312
H      2.796602      3.628983    -1.745662
C      1.054555      6.287630    -0.568840
H     -1.048127      6.273784    -0.123268
H      3.116146      5.988248    -1.104554
H      1.191214      7.326461    -0.285756
C     -0.931023     -3.399015     1.905404
H     -0.829649     -3.033113     2.936410
H     -1.924380     -3.852650     1.819435
C      0.126776     -4.429393     1.651088
C     -0.114510     -5.689115     1.297145
H      1.160704     -4.107754     1.756314
H     -1.123375     -6.070593     1.174565
C      0.942303     -6.692406     1.041005
O      0.728526     -7.838157     0.732663
O      2.199503     -6.208505     1.184603
H      2.798549     -6.945357     0.997523
49
 -1042.12827885 -1041.75961400  0.88 1.08
C     -1.533431     -0.887610     1.420744
C     -0.979093     -0.292227     0.087391
H     -2.378213     -1.574249     1.336575
H     -1.433688     -0.635909    -0.843382
C      0.528015     -0.509660     0.145832
C      1.380323      0.600484    -0.451370
H      0.775781     -1.462455    -0.338752
H      1.221381      0.641263    -1.537258
C      0.938211      1.930468     0.117160
C     -0.299223      2.154675     0.556697
H      1.665502      2.739640     0.136563
H     -0.556940      3.140199     0.942364
C     -1.396829      1.131314     0.529277
C     -1.919482      0.550912     1.882443
H     -2.227194      1.521355    -0.068259
H     -1.324136      0.882234     2.738856
C     -0.330216     -1.518283     2.145014
H     -0.441856     -1.512042     3.234020
H     -0.200551     -2.558940     1.823807
C      0.824191     -0.649537     1.643476
C      2.262879     -1.005350     1.854529
H      0.688336      0.335768     2.106431
H      2.560750     -1.581375     2.728073
C      3.181837     -0.547941     1.008930
C      2.892427      0.281411    -0.228447
H      4.233435     -0.769676     1.179923
H      3.424402      1.233994    -0.109532
C      3.482482     -0.385104    -1.465905
C      3.463332     -1.769075    -1.634956
C      4.026848      0.398244    -2.482768
C      3.976059     -2.352273    -2.787786
H      3.051563     -2.397875    -0.852235
C      4.539876     -0.179685    -3.637187
H      4.048894      1.478825    -2.367891
C      4.516322     -1.560414    -3.793612
H      3.954083     -3.432133    -2.898951
H      4.961614      0.450311    -4.414497
H      4.917192     -2.016842    -4.693033
C     -3.393418      0.807786     2.213992
H     -3.650638      0.223678     3.108072
H     -3.529177      1.863252     2.475364
C     -4.351418      0.441130     1.121040
C     -5.205668      1.284166     0.546881
H     -4.361467     -0.589786     0.772847
H     -5.270387      2.330974     0.827419
C     -6.125627      0.815986    -0.516367
O     -6.190978     -0.303339    -0.959742
O     -6.923660      1.816818    -0.958184
H     -7.492448      1.436889    -1.643602
49
 -1042.12818913 -1041.75959800  0.93 1.09
C     -1.380354      0.896290     1.296133
C     -0.966387      0.025061     0.067526
H     -2.219148      0.528833     1.890343
H     -1.494882     -0.918683    -0.078354
C      0.545081     -0.134660     0.178931
C      1.311012     -0.128496    -1.135848
H      0.771371     -1.056063     0.730135
H      1.052915     -1.024933    -1.715383
C      0.888279      1.071626    -1.953514
C     -0.309553      1.642336    -1.836226
H      1.593760      1.459456    -2.685636
H     -0.556555      2.497393    -2.464221
C     -1.380336      1.160724    -0.899511
C     -1.760250      2.054964     0.324204
H     -2.263366      0.901490    -1.492298
H     -1.094869      2.918227     0.424001
C     -0.101507      1.110630     2.124464
H     -0.112549      2.051614     2.683797
H      0.023286      0.291453     2.842979
C      0.980636      1.053222     1.044864
C      2.440972      0.955301     1.359104
H      0.863696      1.965589     0.446758
H      2.831990      1.384310     2.279257
C      3.266898      0.408872     0.471385
C      2.844840     -0.200474    -0.852732
H      4.334943      0.371368     0.676657
H      3.360707      0.358801    -1.643719
C      3.337049     -1.639385    -0.957312
C      3.337204     -2.497641     0.141652
C      3.767528     -2.137808    -2.186219
C      3.757953     -3.816289     0.014612
H      3.013681     -2.127768     1.109189
C      4.188307     -3.455127    -2.318603
H      3.772930     -1.482775    -3.053537
C      4.185136     -4.300647    -1.215649
H      3.752945     -4.467802     0.883199
H      4.522178     -3.820397    -3.285078
H      4.514279     -5.330234    -1.313610
C     -3.202259      2.570008     0.393972
H     -3.331804      3.146496     1.316876
H     -3.363560      3.264809    -0.441295
C     -4.249994      1.499571     0.329303
C     -5.134914      1.248517     1.290160
H     -4.300038      0.881250    -0.564719
H     -5.165938      1.812807     2.217097
C     -6.133131      0.164926     1.129552
O     -6.252426     -0.557132     0.171345
O     -6.933459      0.061844     2.216842
H     -7.552295     -0.661472     2.039125
49
 -1042.12738165 -1041.75867300  1.44 1.67
C     -1.548999     -0.449617     1.591907
C     -0.992788     -0.238441     0.147688
H     -2.379510     -1.150392     1.699174
H     -1.431080     -0.837978    -0.652094
C      0.517585     -0.398908     0.271134
C      1.354419      0.518225    -0.608706
H      0.788418     -1.443627     0.073027
H      1.205762      0.250714    -1.663420
C      0.881097      1.944335    -0.436389
C     -0.364788      2.256102    -0.082449
H      1.592457      2.742010    -0.640767
H     -0.645351      3.304393     0.011269
C     -1.442174      1.242646     0.172582
C     -1.966748      1.052258     1.631848
H     -2.274036      1.432632    -0.513404
H     -1.385640      1.621475     2.363941
C     -0.341306     -0.827378     2.468745
H     -0.464093     -0.519661     3.512135
H     -0.188486     -1.913326     2.451585
C      0.801202     -0.108823     1.749505
C      2.244238     -0.360927     2.057835
H      0.641838      0.963444     1.918253
H      2.544208     -0.663721     3.058802
C      3.162766     -0.138307     1.122148
C      2.870047      0.306323    -0.298883
H      4.216635     -0.281123     1.352850
H      3.382351      1.265352    -0.448425
C      3.485353     -0.666411    -1.298341
C      3.494549     -2.042633    -1.074182
C      4.024853     -0.186659    -2.491134
C      4.030095     -2.913406    -2.015971
H      3.087029     -2.436555    -0.148790
C      4.560619     -1.052808    -3.435916
H      4.024931      0.883246    -2.682559
C      4.565225     -2.422491    -3.200561
H      4.030030     -3.981581    -1.821187
H      4.978041     -0.656016    -4.356397
H      4.983929     -3.103206    -3.934928
C     -3.447667      1.362978     1.872720
H     -3.703878      1.047739     2.893335
H     -3.604411      2.446375     1.826471
C     -4.389444      0.684944     0.921987
C     -5.243234      1.325550     0.126784
H     -4.376084     -0.401520     0.893064
H     -5.311794      2.408839     0.106261
C     -6.179927      0.648032    -0.796663
O     -6.964235      1.223847    -1.508610
O     -6.083882     -0.703129    -0.776344
H     -6.738124     -1.032814    -1.408923
