49
 -1042.05565947 -1041.68730500  0.00 0.00
C     -1.697333     -1.698711    -0.448178
C     -1.773976     -0.254167    -0.900331
H     -0.785766     -1.795024     0.153039
H     -2.677224     -0.092803    -1.497834
C     -0.513266     -0.063056    -1.708075
C      0.604260      0.687922    -0.994213
H     -0.726422      0.420051    -2.665362
H      0.526376      1.756103    -1.233510
C      0.461894      0.586253     0.521011
C     -0.670637      0.364281     1.203527
H      1.370039      0.778803     1.091473
H     -0.629583      0.387211     2.291166
C     -2.016289      0.133586     0.556629
C     -2.676879     -1.319505     0.703578
H     -2.691985      0.970105     0.760243
H     -3.723203     -1.251188     0.386058
C     -1.309998     -2.440967    -1.750587
H     -2.061494     -2.331841    -2.538961
H     -1.053515     -3.497526    -1.638372
C     -0.048896     -1.532038    -1.978500
C      0.935985     -1.435856    -3.107963
H      0.583747     -1.806434    -1.124490
H      0.867737     -2.004107    -4.030325
C      1.903816     -0.544683    -2.880876
C      1.999430      0.194600    -1.539050
H      2.685087     -0.354598    -3.610977
H      2.383688     -0.535827    -0.814893
C      2.998421      1.332647    -1.588408
C      2.874696      2.341824    -2.544178
C      4.048937      1.409249    -0.678128
C      3.773782      3.398514    -2.587296
H      2.062859      2.296165    -3.265521
C      4.953730      2.465485    -0.716404
H      4.164143      0.630937     0.071751
C      4.819049      3.464354    -1.671306
H      3.659541      4.174324    -3.338524
H      5.766242      2.504763     0.002879
H      5.522958      4.289848    -1.703690
C     -2.558608     -2.073042     2.022534
H     -1.503250     -2.175221     2.298125
H     -2.960268     -3.086030     1.890640
C     -3.308822     -1.389790     3.122438
C     -2.763575     -0.932809     4.246795
H     -4.380499     -1.248741     2.987648
H     -1.704649     -1.032991     4.464079
C     -3.600487     -0.266068     5.271436
O     -4.787162     -0.064755     5.200095
O     -2.865920      0.108845     6.344924
H     -3.476711      0.531912     6.965885
49
 -1042.05533647 -1041.68729800  0.20 0.00
C     -1.689513     -0.950912     0.512012
C     -0.546197     -1.879848     0.153005
H     -1.479099      0.013817     0.035937
H     -0.712758     -2.869216     0.591431
C      0.668469     -1.196660     0.732482
C      1.541441     -0.463006    -0.278015
H      1.280578     -1.898335     1.305348
H      2.332450     -1.139828    -0.625217
C      0.744831     -0.076289    -1.519329
C     -0.364063     -0.676131    -1.976221
H      1.167835      0.731187    -2.116153
H     -0.782654     -0.327009    -2.918888
C     -1.040226     -1.841278    -1.291220
C     -2.492531     -1.599759    -0.655139
H     -0.945355     -2.752293    -1.890741
H     -2.919446     -2.576302    -0.401093
C     -1.421149     -0.646509     2.006072
H     -1.452894     -1.543708     2.632321
H     -2.046057      0.130234     2.454119
C      0.042860     -0.154832     1.717243
C      1.165625      0.258644     2.624651
H     -0.136185      0.749167     1.120842
H      1.122925      0.219656     3.708629
C      2.253612      0.655380     1.960390
C      2.253482      0.753800     0.428574
H      3.152455      0.974884     2.479606
H      1.671244      1.651105     0.180669
C      3.647229      0.966430    -0.126281
C      3.934823      2.045132    -0.958019
C      4.673089      0.069675     0.174823
C      5.211963      2.226519    -1.479311
H      3.149931      2.756525    -1.201405
C      5.949221      0.244787    -0.342528
H      4.467668     -0.776172     0.825861
C      6.223926      1.326432    -1.173505
H      5.414237      3.075513    -2.125360
H      6.733541     -0.464933    -0.096737
H      7.221204      1.464853    -1.578783
C     -3.510508     -0.742340    -1.395463
H     -3.796109     -1.256834    -2.322531
H     -3.055402      0.212501    -1.680432
C     -4.738425     -0.504529    -0.572556
C     -5.189448      0.689885    -0.200247
H     -5.296104     -1.380512    -0.243951
H     -4.693650      1.614156    -0.479684
C     -6.413500      0.805334     0.626231
O     -7.096411     -0.107258     1.019801
O     -6.701355      2.097677     0.909750
H     -7.505600      2.091202     1.449008
49
 -1042.05531853 -1041.68727600  0.21 0.02
C     -1.509995      1.306742    -0.181359
C     -0.156028      1.876819    -0.556394
H     -1.324735      0.451302     0.478635
H     -0.281445      2.749081    -1.206202
C      0.532771      0.734289    -1.262180
C      1.575275     -0.004293    -0.432115
H      0.979667      1.063875    -2.203937
H      2.560601      0.442873    -0.615324
C      1.310897      0.159457     1.060656
C      0.646908      1.164977     1.649096
H      1.766943     -0.592674     1.703667
H      0.599400      1.178735     2.736888
C      0.004453      2.309060     0.899234
C     -1.595925      2.412607     0.913092
H      0.528870      3.248550     1.100977
H     -1.876664      3.395684     0.519138
C     -1.962040      0.619239    -1.492772
H     -2.066083      1.323069    -2.324634
H     -2.863580      0.005264    -1.423027
C     -0.649204     -0.239414    -1.579839
C     -0.122971     -1.173972    -2.630817
H     -0.745476     -0.888831    -0.700038
H     -0.606700     -1.357070    -3.585214
C      1.034341     -1.744768    -2.288594
C      1.655499     -1.506474    -0.905281
H      1.544672     -2.438067    -2.950766
H      1.058069     -2.095673    -0.197078
C      3.075524     -2.028474    -0.823656
C      4.042997     -1.591926    -1.729565
C      3.453310     -2.938439     0.159866
C      5.351127     -2.049920    -1.653067
H      3.764998     -0.884593    -2.506678
C      4.762685     -3.401711     0.241525
H      2.713277     -3.293034     0.872595
C      5.716593     -2.958635    -0.664825
H      6.089303     -1.697217    -2.367189
H      5.035155     -4.112043     1.016297
H      6.738960     -3.317802    -0.603675
C     -2.363707      2.104884     2.191895
H     -2.120721      2.870065     2.941015
H     -2.040564      1.139527     2.596518
C     -3.843266      2.100252     1.962987
C     -4.646245      1.061614     2.175394
H     -4.291733      3.016124     1.580377
H     -4.283114      0.110341     2.551418
C     -6.098437      1.167925     1.902376
O     -6.677262      2.143709     1.493852
O     -6.740450      0.006100     2.169540
H     -7.675953      0.152866     1.967189
49
 -1042.05551591 -1041.68723000  0.09 0.05
C     -1.721933      0.603075    -0.305178
C     -0.658222      1.620335     0.058916
H     -1.341639     -0.378860     0.001006
H     -0.993155      2.626953    -0.211710
C      0.545775      1.185020    -0.740136
C      1.616313      0.447068     0.054212
H      0.996853      2.029725    -1.267639
H      2.360672      1.170959     0.409493
C      1.029717     -0.200082     1.304238
C     -0.075862      0.183705     1.959403
H      1.614093     -1.015679     1.729004
H     -0.330288     -0.337222     2.881137
C     -0.962195      1.328860     1.526510
C     -2.445658      0.987054     1.019725
H     -0.900438      2.158580     2.237852
H     -3.008042      1.923980     0.951827
C     -1.608218      0.534238    -1.847778
H     -1.822142      1.492971    -2.330617
H     -2.188867     -0.253645    -2.334920
C     -0.072676      0.206935    -1.792542
C      0.968596      0.067165    -2.865504
H     -0.069968     -0.782744    -1.317565
H      0.787124      0.241354    -3.921463
C      2.169284     -0.265737    -2.386125
C      2.371118     -0.562395    -0.893579
H      3.027506     -0.393249    -3.039402
H      1.932143     -1.553296    -0.717554
C      3.838312     -0.659826    -0.528265
C      4.707649      0.396377    -0.803735
C      4.350491     -1.790818     0.101507
C      6.049986      0.325134    -0.457448
H      4.325967      1.285717    -1.298613
C      5.695035     -1.868608     0.450642
H      3.689895     -2.625465     0.321383
C      6.549719     -0.810343     0.172548
H      6.709914      1.158385    -0.679849
H      6.073372     -2.760800     0.940479
H      7.599033     -0.867704     0.443891
C     -3.268764     -0.078458     1.730559
H     -3.513029      0.253441     2.745519
H     -2.665420     -0.991383     1.822756
C     -4.522029     -0.395466     0.977080
C     -5.757339     -0.263312     1.452387
H     -4.408145     -0.751641    -0.045652
H     -5.960534      0.089204     2.458891
C     -6.926995     -0.607303     0.610874
O     -6.894579     -1.002075    -0.528026
O     -8.090449     -0.427621     1.280418
H     -8.801979     -0.672504     0.671043
49
 -1042.05549797 -1041.68721500  0.10 0.06
C     -1.410591      0.060557     1.655146
C     -0.762383     -1.171966     1.058096
H     -1.079264      0.917653     1.057091
H     -1.073773     -2.065366     1.609093
C      0.716602     -0.903647     1.193279
C      1.414212     -0.466269    -0.088754
H      1.237586     -1.765401     1.618946
H      1.821685     -1.351090    -0.594084
C      0.428049      0.159888    -1.068904
C     -0.892888     -0.063324    -1.125565
H      0.867493      0.803118    -1.830679
H     -1.455296      0.409894    -1.929136
C     -1.641048     -0.969175    -0.174327
C     -2.688506     -0.298138     0.838463
H     -2.007845     -1.860393    -0.693419
H     -3.285766     -1.099218     1.286208
C     -0.619701      0.253494     2.972169
H     -0.722847     -0.595493     3.655365
H     -0.817658      1.181340     3.514919
C      0.761901      0.271358     2.224529
C      2.178277      0.309162     2.722043
H      0.685482      1.191765     1.631160
H      2.460361      0.275343     3.769718
C      3.076524      0.356175     1.735543
C      2.636193      0.463953     0.269071
H      4.143400      0.377197     1.937784
H      2.300295      1.499582     0.126817
C      3.789817      0.240261    -0.687330
C      4.116790      1.185565    -1.655606
C      4.542347     -0.933262    -0.625892
C      5.166089      0.967902    -2.542928
H      3.544639      2.107645    -1.717098
C      5.590071     -1.156617    -1.508623
H      4.303825     -1.680646     0.126462
C      5.906449     -0.204561    -2.472695
H      5.404283      1.719250    -3.289804
H      6.162996     -2.076919    -1.444789
H      6.725399     -0.377596    -3.163604
C     -3.584247      0.839665     0.366333
H     -2.956438      1.627546    -0.070169
H     -4.110143      1.277673     1.221433
C     -4.569655      0.376278    -0.660426
C     -5.891957      0.403884    -0.518528
H     -4.170993     -0.029876    -1.589138
H     -6.373936      0.788418     0.374860
C     -6.774927     -0.099653    -1.596965
O     -6.418777     -0.551326    -2.656693
O     -8.081375      0.001248    -1.256285
H     -8.590748     -0.345874    -2.003085
49
 -1042.05619779 -1041.68712500  -0.34 0.11
C     -1.785786      0.560770     0.413942
C     -0.665953      0.972445     1.347813
H     -1.465073     -0.360852    -0.085948
H     -0.941551      1.883903     1.888373
C      0.509249      1.188235     0.425612
C      1.537789      0.064439     0.414527
H      1.006432      2.138949     0.635508
H      2.323235      0.291358     1.146528
C      0.918867     -1.256175     0.859219
C     -0.161864     -1.410769     1.637864
H      1.458066     -2.152874     0.555409
H     -0.442646     -2.422079     1.927713
C     -0.983847     -0.265285     2.183312
C     -2.484069     -0.091939     1.644290
H     -0.873800     -0.193451     3.270096
H     -2.996347      0.630205     2.288576
C     -1.680242      1.604399    -0.724648
H     -1.837036      2.630109    -0.375343
H     -2.308641      1.417927    -1.599371
C     -0.165979      1.274891    -0.982948
C      0.863391      1.899827    -1.880019
H     -0.219387      0.242679    -1.352142
H      0.690141      2.780629    -2.490297
C      2.043882      1.278391    -1.830089
C      2.231136      0.000606    -1.000381
H      2.892323      1.620397    -2.415532
H      1.735841     -0.802730    -1.561537
C      3.690903     -0.385393    -0.875091
C      4.137918     -1.647102    -1.257640
C      4.619360      0.517421    -0.355347
C      5.476342     -2.003016    -1.124562
H      3.430575     -2.363089    -1.668003
C      5.955938      0.168181    -0.219556
H      4.288925      1.508522    -0.055270
C      6.390276     -1.096357    -0.604558
H      5.803340     -2.992352    -1.430123
H      6.662564      0.885010     0.188000
H      7.435004     -1.370966    -0.499148
C     -3.343412     -1.320354     1.416523
H     -3.551690     -1.806421     2.379391
H     -2.780880     -2.058638     0.828708
C     -4.651006     -1.067754     0.726834
C     -5.089055      0.099573     0.261464
H     -5.303856     -1.929354     0.594042
H     -4.520375      1.019313     0.332754
C     -6.412523      0.182387    -0.397137
O     -7.179838     -0.730968    -0.575952
O     -6.691084      1.446504    -0.795461
H     -7.565559      1.420851    -1.210400
49
 -1042.05438544 -1041.68633500  0.80 0.61
C     -1.898021      0.328268    -0.457863
C     -0.929320      1.386452    -0.948365
H     -1.413187     -0.184959     0.380688
H     -1.370989      1.944710    -1.780309
C      0.283923      0.595347    -1.372720
C      1.450030      0.624195    -0.392525
H      0.629250      0.902940    -2.363362
H      2.129997      1.439803    -0.669638
C      0.975408      0.935581     1.022664
C     -0.139610      1.597656     1.364148
H      1.653005      0.636505     1.821764
H     -0.309153      1.803234     2.419957
C     -1.150434      2.122759     0.370910
C     -2.607589      1.452338     0.355202
H     -1.146630      3.217332     0.354779
H     -3.265111      2.082558    -0.253897
C     -1.831138     -0.736801    -1.579474
H     -2.155646     -0.348927    -2.550266
H     -2.347595     -1.678008    -1.374568
C     -0.269516     -0.864656    -1.463835
C      0.743021     -1.624016    -2.271955
H     -0.151820     -1.291413    -0.459322
H      0.508807     -2.201062    -3.161067
C      1.986854     -1.493590    -1.804789
C      2.268544     -0.718495    -0.510228
H      2.830406     -1.976114    -2.289740
H      1.936812     -1.366601     0.311689
C      3.749833     -0.473466    -0.306830
C      4.393688     -0.877941     0.859324
C      4.499535      0.181172    -1.284920
C      5.750503     -0.635330     1.048919
H      3.827620     -1.392515     1.631434
C      5.853378      0.426698    -1.101564
H      4.014261      0.500461    -2.203657
C      6.485281      0.018393     0.068884
H      6.232576     -0.960359     1.966005
H      6.418852      0.938443    -1.874631
H      7.543793      0.209508     0.213798
C     -3.282684      1.077397     1.667606
H     -3.509468      1.997081     2.223136
H     -2.596966      0.485790     2.283651
C     -4.556123      0.321466     1.439800
C     -4.797016     -0.907340     1.889760
H     -5.321553      0.823444     0.851439
H     -4.070588     -1.459787     2.477279
C     -6.058594     -1.641138     1.648882
O     -6.282437     -2.754856     2.052904
O     -6.964928     -0.944435     0.921755
H     -7.739262     -1.517724     0.829140
49
 -1042.05434955 -1041.68629600  0.82 0.63
C     -1.848328     -0.676230     0.214645
C     -0.925269     -1.577835    -0.581527
H     -1.427530      0.334813     0.166793
H     -1.308505     -2.603493    -0.581620
C      0.397434     -1.463405     0.136237
C      1.425444     -0.566083    -0.541562
H      0.834073     -2.448829     0.319205
H      2.058339     -1.178554    -1.196269
C      0.752701      0.459541    -1.447350
C     -0.451055      0.345915    -2.027254
H      1.349925      1.339174    -1.685522
H     -0.768244      1.136062    -2.706068
C     -1.373795     -0.836002    -1.838490
C     -2.751494     -0.596498    -1.052631
H     -1.466445     -1.408560    -2.766920
H     -3.382264     -1.481007    -1.195003
C     -1.547157     -1.089957     1.675835
H     -1.782114     -2.140439     1.874423
H     -1.998263     -0.465123     2.450862
C     -0.006839     -0.829854     1.508011
C      1.162329     -1.073099     2.418397
H      0.023158      0.256727     1.355049
H      1.093045     -1.555030     3.388596
C      2.321770     -0.663040     1.898875
C      2.369947      0.068475     0.550263
H      3.258991     -0.780925     2.434889
H      1.998867      1.084155     0.740771
C      3.786501      0.207734     0.031045
C      4.589387     -0.919852    -0.145475
C      4.314873      1.453484    -0.296061
C      5.882447     -0.805766    -0.637193
H      4.194747     -1.900270     0.108587
C      5.610357      1.574583    -0.788817
H      3.706293      2.344042    -0.162242
C      6.398842      0.444888    -0.961473
H      6.490805     -1.695738    -0.768060
H      6.002542      2.556327    -1.036718
H      7.409715      0.535854    -1.345967
C     -3.547897      0.679070    -1.292177
H     -3.923708      0.671920    -2.323967
H     -2.893610      1.551549    -1.190189
C     -4.710033      0.791690    -0.353169
C     -4.893966      1.790783     0.506154
H     -5.438101     -0.016517    -0.380656
H     -4.199814      2.621668     0.582688
C     -6.044814      1.881649     1.431004
O     -6.216568      2.783646     2.212420
O     -6.912232      0.846192     1.326280
H     -7.614486      1.012167     1.971355
49
 -1042.05467255 -1041.68629100  0.62 0.64
C     -1.472487      1.423122     1.262241
C     -0.538283      0.380788     1.843558
H     -1.389887      1.350073     0.171592
H     -0.588446      0.396728     2.937244
C      0.820510      0.788414     1.328065
C      1.344966     -0.040964     0.162082
H      1.561204      0.800320     2.132085
H      1.959899     -0.860660     0.554875
C      0.205047     -0.702387    -0.605753
C     -1.010643     -1.004008    -0.127403
H      0.441648     -1.010074    -1.623869
H     -1.701232     -1.540048    -0.776189
C     -1.467820     -0.690580     1.278030
C     -2.630119      0.398230     1.460540
H     -1.602775     -1.610563     1.855318
H     -2.992084      0.339128     2.492941
C     -0.728146      2.747915     1.558907
H     -0.587474      2.923105     2.630212
H     -1.149695      3.644596     1.097452
C      0.581104      2.256129     0.843027
C      1.949766      2.860405     0.714531
H      0.250184      2.174707    -0.200405
H      2.258139      3.785544     1.191329
C      2.777628      2.122208    -0.028527
C      2.285914      0.851371    -0.735209
H      3.806188      2.423432    -0.204297
H      1.684009      1.190293    -1.588683
C      3.431892      0.037334    -1.300576
C      3.470855     -0.313664    -2.647181
C      4.469929     -0.392943    -0.473189
C      4.516447     -1.076080    -3.158258
H      2.673258      0.014928    -3.308413
C      5.515650     -1.154262    -0.976849
H      4.458063     -0.124798     0.580118
C      5.542726     -1.499467    -2.324459
H      4.527077     -1.337627    -4.212092
H      6.313527     -1.479903    -0.316073
H      6.359678     -2.094612    -2.719894
C     -3.794250      0.433661     0.478470
H     -3.415012      0.540239    -0.543625
H     -4.412055      1.315995     0.690331
C     -4.647469     -0.793051     0.581185
C     -4.873636     -1.640414    -0.420222
H     -5.101444     -0.994828     1.549426
H     -4.451960     -1.490789    -1.409345
C     -5.716389     -2.850709    -0.303898
O     -5.935503     -3.612706    -1.212053
O     -6.234840     -3.037029     0.933688
H     -6.763655     -3.846496     0.889210
49
 -1042.05449311 -1041.68544000  0.73 1.17
C     -1.705597      1.332034    -0.847998
C     -0.890026      1.534650     0.411978
H     -1.390540      0.374678    -1.278845
H     -1.170724      2.475765     0.896190
C      0.536082      1.548012    -0.081776
C      1.314478      0.259683     0.156664
H      1.090626      2.393563     0.333796
H      1.853082      0.338997     1.109487
C      0.378930     -0.936247     0.302583
C     -0.902443     -0.904320     0.695925
H      0.832992     -1.910841     0.126174
H     -1.428762     -1.849434     0.820671
C     -1.652030      0.364455     1.027929
C     -2.856032      0.793674     0.057315
H     -1.877492      0.409428     2.097567
H     -3.431946      1.583892     0.549385
C     -1.075182      2.351585    -1.828254
H     -1.168307      3.385341    -1.480635
H     -1.412349      2.286315    -2.865868
C      0.367936      1.764900    -1.621800
C      1.717626      2.205922    -2.110581
H      0.266971      0.761249    -2.054662
H      1.895857      3.108830    -2.686151
C      2.701239      1.384870    -1.735267
C      2.400843      0.086585    -0.973260
H      3.736039      1.576601    -2.003552
H      1.983847     -0.610972    -1.711581
C      3.659862     -0.553652    -0.425020
C      3.989187     -1.871617    -0.729350
C      4.511472      0.165415     0.414585
C      5.137308     -2.460895    -0.209450
H      3.340223     -2.447075    -1.384377
C      5.658148     -0.416954     0.936905
H      4.272218      1.196988     0.659774
C      5.975944     -1.735405     0.626063
H      5.375319     -3.490110    -0.460746
H      6.307417      0.159515     1.589136
H      6.872179     -2.192223     1.033563
C     -3.768352     -0.265105    -0.533638
H     -3.159753     -1.024766    -1.043048
H     -4.394432      0.183760    -1.316709
C     -4.669780     -0.970815     0.434926
C     -4.798496     -0.708497     1.734131
H     -5.272422     -1.773655     0.015279
H     -4.243613      0.074622     2.236452
C     -5.707984     -1.456709     2.627970
O     -5.832337     -1.237822     3.807347
O     -6.407730     -2.433800     2.001766
H     -6.959498     -2.850415     2.679012
49
 -1042.05404451 -1041.68490600  1.01 1.51
C     -1.995936      1.571128    -0.595603
C     -0.836022      2.221138     0.131701
H     -1.851366      0.489699    -0.503266
H     -0.929896      3.311550     0.096484
C      0.378889      1.729783    -0.617670
C      1.162205      0.622143     0.075148
H      1.051050      2.556377    -0.863353
H      1.960383      1.072646     0.678673
C      0.281169     -0.150161     1.050813
C     -0.830070      0.296654     1.653631
H      0.639042     -1.143459     1.320085
H     -1.314103     -0.353868     2.378193
C     -1.420262      1.670931     1.432205
C     -2.838610      1.804436     0.690393
H     -1.322240      2.281655     2.335613
H     -3.151993      2.848626     0.797372
C     -1.653137      1.825749    -2.083427
H     -1.607812      2.891264    -2.330539
H     -2.284957      1.311991    -2.812608
C     -0.232731      1.170373    -1.944056
C      0.921927      1.057591    -2.897551
H     -0.485319      0.122009    -1.737701
H      0.942852      1.500377    -3.888448
C      1.952597      0.376913    -2.391109
C      1.860912     -0.284824    -1.009330
H      2.865167      0.220321    -2.958808
H      1.227738     -1.172624    -1.137412
C      3.210425     -0.773172    -0.523670
C      4.289682      0.106431    -0.430221
C      3.403344     -2.098910    -0.145169
C      5.525583     -0.326139     0.030489
H      4.158346      1.144377    -0.725017
C      4.639728     -2.538857     0.316931
H      2.575625     -2.799998    -0.213749
C      5.705521     -1.653556     0.406678
H      6.352621      0.374531     0.096443
H      4.767929     -3.577648     0.606012
H      6.671237     -1.993422     0.767037
C     -4.027158      0.901367     1.022583
H     -4.869887      1.214103     0.391275
H     -4.329202      1.075602     2.061546
C     -3.812520     -0.564310     0.803264
C     -3.966010     -1.502986     1.733958
H     -3.547459     -0.895462    -0.198500
H     -4.242516     -1.271012     2.757880
C     -3.762190     -2.931277     1.398616
O     -3.455463     -3.373181     0.319403
O     -3.964389     -3.727638     2.475028
H     -3.812725     -4.637261     2.179754
49
 -1042.05316525 -1041.68465600  1.57 1.66
C     -1.995945      1.381165    -0.566370
C     -0.880509      2.187210     0.066732
H     -1.813914      0.330640    -0.313950
H     -1.022946      3.254116    -0.134225
C      0.369041      1.647929    -0.587087
C      1.192997      0.698212     0.272776
H      1.005765      2.460003    -0.948458
H      1.964591      1.273164     0.800562
C      0.341504      0.052393     1.359209
C     -0.795828      0.534997     1.879194
H      0.751152     -0.857865     1.796132
H     -1.238197     -0.001085     2.716907
C     -1.460508      1.816251     1.431136
C     -2.871701      1.759991     0.662241
H     -1.411142      2.568275     2.225451
H     -3.237809      2.791452     0.616271
C     -1.638363      1.426520    -2.071702
H     -1.635830      2.444165    -2.475230
H     -2.233345      0.780461    -2.722234
C     -0.192916      0.866450    -1.819488
C      0.982421      0.664123    -2.732061
H     -0.402680     -0.149122    -1.459551
H      1.002275      0.953637    -3.778100
C      2.031943      0.113974    -2.117164
C      1.942721     -0.335025    -0.652355
H      2.960555     -0.085125    -2.644021
H      1.345129     -1.256094    -0.650400
C      3.301005     -0.690441    -0.082959
C      4.345985      0.233830    -0.114816
C      3.535544     -1.933770     0.497817
C      5.588974     -0.074988     0.420409
H      4.182169      1.208240    -0.567763
C      4.779245     -2.249591     1.035566
H      2.735029     -2.668303     0.529382
C      5.810633     -1.320804     0.998958
H      6.388876      0.658682     0.386281
H      4.940228     -3.225819     1.482952
H      6.781933     -1.563884     1.417839
C     -4.027517      0.850903     1.089598
H     -4.887714      1.066479     0.446270
H     -4.320347      1.121171     2.112478
C     -3.742853     -0.620106     1.043122
C     -4.287429     -1.463565     0.170269
H     -3.055939     -1.036612     1.774785
H     -4.986063     -1.141118    -0.595426
C     -3.957235     -2.907454     0.213114
O     -3.201982     -3.443393     0.985168
O     -4.621951     -3.596421    -0.744527
H     -4.359051     -4.523843    -0.652735
49
 -1042.05314730 -1041.68384600  1.58 2.17
C     -0.136723      0.448806    -2.560223
C      0.411612      1.582748    -1.717377
H     -0.615154     -0.248860    -1.864919
H      0.888401      2.333288    -2.356473
C      1.400775      0.904102    -0.800934
C      0.916505      0.687709     0.627018
H      2.355520      1.436748    -0.788192
H      1.228827      1.540232     1.243414
C     -0.606331      0.654375     0.694379
C     -1.459573      1.217560    -0.173165
H     -1.026063      0.170384     1.575744
H     -2.522870      1.161809     0.047819
C     -1.033331      1.974744    -1.410718
C     -1.361708      1.359555    -2.857656
H     -1.263632      3.040188    -1.308284
H     -1.129091      2.139668    -3.590655
C      1.141920     -0.319178    -2.974269
H      1.827133      0.291591    -3.570806
H      0.981079     -1.276900    -3.476001
C      1.612044     -0.486419    -1.485136
C      2.872407     -1.038111    -0.883290
H      0.834345     -1.143117    -1.073520
H      3.725394     -1.383308    -1.459153
C      2.858720     -1.034180     0.451577
C      1.610271     -0.594376     1.228541
H      3.704520     -1.393661     1.030358
H      0.889399     -1.417719     1.139294
C      1.895178     -0.417171     2.706036
C      1.150418     -1.091911     3.669420
C      2.906292      0.444331     3.133459
C      1.404113     -0.912696     5.025612
H      0.360597     -1.769723     3.356211
C      3.164028      0.627882     4.485010
H      3.500441      0.976569     2.395082
C      2.412031     -0.051583     5.438304
H      0.811325     -1.449900     5.759849
H      3.954930      1.303497     4.796938
H      2.612320      0.090736     6.495472
C     -2.723192      0.756062    -3.204374
H     -2.682414      0.417336    -4.248460
H     -3.485637      1.541645    -3.156078
C     -3.150614     -0.408037    -2.363287
C     -4.280876     -0.454452    -1.661343
H     -2.504876     -1.282087    -2.358610
H     -4.978029      0.377265    -1.632356
C     -4.704957     -1.622794    -0.860366
O     -5.731257     -1.675287    -0.229469
O     -3.827561     -2.654591    -0.893618
H     -4.206650     -3.352770    -0.340810
49
 -1042.05312936 -1041.68382800  1.59 2.18
C     -1.750282      0.825726    -1.740566
C     -0.512272      1.686296    -1.586827
H     -1.768451      0.154215    -0.875797
H     -0.443136      2.401303    -2.413305
C      0.622060      0.690298    -1.599300
C      1.226791      0.381556    -0.235710
H      1.411315      1.000833    -2.289268
H      2.077890      1.052190    -0.062032
C      0.232711      0.663083     0.885552
C     -0.804555      1.511663     0.842855
H      0.436409      0.159354     1.830005
H     -1.386530      1.652176     1.750656
C     -1.181736      2.328613    -0.372413
C     -2.558490      2.008506    -1.135301
H     -1.000536      3.393150    -0.191772
H     -2.712390      2.817248    -1.857953
C     -1.361838     -0.129592    -2.894970
H     -1.156961      0.400016    -3.830894
H     -2.057274     -0.950368    -3.088695
C     -0.055533     -0.602077    -2.162281
C      1.076915     -1.488332    -2.594965
H     -0.462447     -1.130253    -1.289960
H      1.170737     -1.921556    -3.585863
C      1.991395     -1.670766    -1.639706
C      1.792179     -1.090586    -0.232783
H      2.874956     -2.279882    -1.806704
H      1.035820     -1.720956     0.253086
C      3.051000     -1.189122     0.604608
C      4.247403     -0.631290     0.152199
C      3.043317     -1.820048     1.845543
C      5.402337     -0.700091     0.919141
H      4.272888     -0.138092    -0.816097
C      4.197636     -1.892843     2.618837
H      2.121834     -2.263426     2.213826
C      5.381590     -1.332619     2.158262
H      6.323119     -0.258891     0.549298
H      4.168972     -2.390553     3.583490
H      6.283766     -1.387367     2.759142
C     -3.872063      1.763161    -0.392075
H     -4.650935      1.574918    -1.143364
H     -4.159016      2.677749     0.138944
C     -3.871541      0.609198     0.563755
C     -4.164097      0.704822     1.858992
H     -3.649188     -0.373654     0.156907
H     -4.408618      1.652887     2.328029
C     -4.190099     -0.448271     2.784266
O     -4.462812     -0.370529     3.956299
O     -3.876389     -1.627452     2.195492
H     -3.925850     -2.300346     2.889413
49
 -1042.05223216 -1041.68368500  2.15 2.27
C     -2.210472     -1.095488    -0.526530
C     -1.167442     -1.276938    -1.609987
H     -1.887802     -0.247612     0.087605
H     -1.449499     -2.101311    -2.273175
C      0.099702     -1.572224    -0.843897
C      1.079872     -0.411004    -0.738877
H      0.611733     -2.447436    -1.252921
H      1.804162     -0.479809    -1.560567
C      0.375212      0.928249    -0.918531
C     -0.781349      1.145711    -1.560278
H      0.916144      1.796259    -0.542702
H     -1.107457      2.177129    -1.681826
C     -1.620804      0.060528    -2.194359
C     -3.055657     -0.310665    -1.570062
H     -1.618381      0.165535    -3.284240
H     -3.544671     -0.969639    -2.295806
C     -1.946099     -2.301043     0.407678
H     -2.089951     -3.263693    -0.093381
H     -2.493790     -2.299739     1.353522
C     -0.431459     -1.925073     0.583943
C      0.706623     -2.624122     1.270368
H     -0.495748     -0.971220     1.123415
H      0.632352     -3.601004     1.737917
C      1.848141     -1.933500     1.222906
C      1.896613     -0.529832     0.604366
H      2.762982     -2.314427     1.667307
H      1.416600      0.140810     1.329164
C      3.317885     -0.037282     0.423120
C      3.734451      1.175529     0.965090
C      4.238999     -0.786937    -0.309585
C      5.035613      1.632567     0.781228
H      3.032471      1.772321     1.541654
C      5.538453     -0.336242    -0.497026
H      3.932476     -1.738226    -0.736868
C      5.942434      0.878086     0.048988
H      5.339241      2.581176     1.213712
H      6.239803     -0.934341    -1.071191
H      6.958112      1.231894    -0.096579
C     -4.070172      0.737144    -1.103902
H     -4.978333      0.213898    -0.785248
H     -4.346670      1.359880    -1.964459
C     -3.608351      1.631554     0.008382
C     -4.066564      1.563839     1.256187
H     -2.862873      2.384880    -0.226247
H     -4.813887      0.836902     1.558247
C     -3.619697      2.455252     2.348984
O     -4.037708      2.403011     3.478711
O     -2.682697      3.356910     1.969401
H     -2.472540      3.879744     2.756352
49
 -1042.05223216 -1041.68368000  2.15 2.27
C      2.224718      0.449106    -1.100498
C      2.158953      0.897284     0.345008
H      1.191374      0.340547    -1.447802
H      3.168596      1.045496     0.742024
C      1.435537     -0.231605     1.039280
C     -0.025877      0.041168     1.371016
H      1.964937     -0.539995     1.944877
H     -0.092076      0.438129     2.392069
C     -0.607883      1.121757     0.467678
C      0.072978      2.078468    -0.178776
H     -1.695657      1.148058     0.409799
H     -0.499172      2.834967    -0.712921
C      1.577309      2.221477    -0.149026
C      2.435496      1.942637    -1.480230
H      1.862343      3.132786     0.386831
H      3.452335      2.290646    -1.268075
C      2.690606     -1.022194    -0.981271
H      3.676265     -1.117031    -0.514438
H      2.670356     -1.604626    -1.905908
C      1.515658     -1.391291    -0.006691
C      1.199254     -2.642380     0.761257
H      0.637493     -1.271277    -0.654323
H      1.831796     -3.524352     0.782105
C      0.062031     -2.555364     1.455110
C     -0.832959     -1.312994     1.351566
H     -0.294981     -3.377392     2.068578
H     -1.329171     -1.373805     0.374028
C     -1.926054     -1.310762     2.400664
C     -1.607542     -1.414854     3.755286
C     -3.266273     -1.188955     2.044080
C     -2.599922     -1.395535     4.725675
H     -0.566631     -1.514510     4.052016
C     -4.265652     -1.169443     3.011845
H     -3.534670     -1.109849     0.993810
C     -3.935788     -1.272430     4.356587
H     -2.330985     -1.477052     5.774631
H     -5.304679     -1.074483     2.711019
H     -4.712944     -1.257225     5.114062
C      2.028729      2.446239    -2.867793
H      2.819152      2.172202    -3.575047
H      1.990677      3.542928    -2.841893
C      0.716526      1.931619    -3.381289
C      0.599351      1.051681    -4.373017
H     -0.189769      2.310963    -2.919757
H      1.463677      0.634483    -4.880027
C     -0.695955      0.555293    -4.887139
O     -0.807303     -0.235289    -5.790648
O     -1.771893      1.073490    -4.247711
H     -2.552312      0.683272    -4.666624
