49
 -1042.13306990 -1041.76700800  0.00 0.00
C      1.061511     -0.300341    -1.353446
C      1.805108     -1.398327    -2.160023
H      1.557935      0.675066    -1.310020
H      1.301125     -1.704365    -3.080576
C      3.304485     -1.188996    -2.450404
C      3.911614     -2.556218    -2.687187
H      3.450770     -0.513055    -3.295152
H      4.419130     -2.801838    -3.613737
C      3.795271     -3.386969    -1.653565
C      3.028993     -2.833962    -0.480059
H      4.190486     -4.397458    -1.647185
H      2.950480     -3.551514     0.341270
C      1.641035     -2.371171    -0.958623
C      1.195594     -1.169335    -0.075746
H      0.924943     -3.180707    -1.108201
H      0.274391     -1.267977     0.502735
C     -0.385505     -0.103045    -1.804677
H     -0.383194      0.298856    -2.826921
H     -0.896695     -1.072666    -1.845004
C     -1.142354      0.831298    -0.905754
C     -2.256569      0.518142    -0.243625
H     -0.728138      1.834045    -0.788065
H     -2.676340     -0.481992    -0.352156
C     -2.973304      1.438708     0.632003
C     -4.096644      1.113256     1.278672
H     -2.542569      2.431722     0.737321
H     -4.492201      0.107601     1.140035
C     -4.882649      1.975030     2.175738
C     -4.515940      3.287384     2.489912
C     -6.052009      1.464058     2.745197
C     -5.293305      4.057210     3.342417
H     -3.613642      3.715288     2.067126
C     -6.832693      2.232370     3.598116
H     -6.351353      0.446097     2.511405
C     -6.455340      3.534465     3.900667
H     -4.990520      5.073702     3.573988
H     -7.737165      1.812201     4.026704
H     -7.061186      4.140142     4.567170
C      2.420135     -0.874267     0.799361
H      2.553161      0.193094     1.003709
H      2.312371     -1.380178     1.765284
C      3.609638     -1.487027     0.040363
C      4.004307     -0.627603    -1.178020
H      4.479683     -1.636069     0.680915
H      3.698764      0.412998    -1.029508
C      5.504847     -0.581939    -1.389103
O      6.345778     -1.147326    -0.742249
O      5.826295      0.220405    -2.432556
H      6.791466      0.201205    -2.508543
49
 -1042.13310579 -1041.76699500  -0.02 0.01
C      1.581981      1.461175    -0.671239
C      1.883781      0.208890     0.192933
H      1.430621      1.276672    -1.740399
H      1.090371     -0.051582     0.897543
C      2.359992     -1.067676    -0.528110
C      3.124640     -1.896206     0.483324
H      1.519118     -1.610137    -0.964527
H      2.829987     -2.910825     0.728515
C      4.188229     -1.280842     0.995292
C      4.387819      0.136064     0.523497
H      4.856254     -1.736994     1.718465
H      5.266497      0.605274     0.974525
C      3.108775      0.944633     0.806084
C      2.971042      2.039752    -0.290655
H      2.993884      1.254021     1.846056
H      2.959253      3.084894     0.028663
C      0.416229      2.296136    -0.141044
H      0.561190      2.500664     0.926895
H      0.422386      3.267458    -0.654245
C     -0.911718      1.628615    -0.355323
C     -1.780670      1.329005     0.610641
H     -1.159496      1.360995    -1.383971
H     -1.539927      1.588563     1.641556
C     -3.059052      0.664768     0.382283
C     -3.915336      0.361630     1.362496
H     -3.291477      0.417206    -0.650870
H     -3.637905      0.625842     2.382430
C     -5.219503     -0.305420     1.223028
C     -5.750207     -0.696099    -0.010325
C     -5.969445     -0.563068     2.373667
C     -6.985796     -1.321695    -0.085649
H     -5.195927     -0.510108    -0.923658
C     -7.206035     -1.189862     2.301670
H     -5.571515     -0.266009     3.340056
C     -7.719957     -1.572131     1.069121
H     -7.380154     -1.616452    -1.053202
H     -7.768426     -1.379463     3.210557
H     -8.686399     -2.062167     1.006093
C      4.108267      1.730867    -1.272413
H      3.841782      1.935914    -2.314371
H      4.980341      2.348901    -1.031163
C      4.456149      0.252639    -1.026997
C      3.390656     -0.685139    -1.630468
H      5.440262     -0.013071    -1.414882
H      2.867341     -0.191651    -2.455673
C      3.998846     -1.937988    -2.229364
O      5.160863     -2.245942    -2.241143
O      3.047993     -2.717286    -2.798946
H      3.504397     -3.492762    -3.156751
49
 -1042.13262130 -1041.76655700  0.28 0.28
C      1.388989     -1.329662     0.317898
C      2.058239     -0.771414    -0.966853
H      1.243851     -0.609968     1.129305
H      1.406521     -0.736057    -1.843581
C      2.826294      0.560280    -0.856704
C      3.832242      0.593554    -1.988553
H      2.142709      1.411345    -0.877756
H      3.834343      1.388638    -2.726250
C      4.713145     -0.404069    -1.960141
C      4.501086     -1.404913    -0.853944
H      5.512952     -0.520327    -2.684093
H      5.240811     -2.209964    -0.873260
C      3.065882     -1.954680    -0.941865
C      2.586583     -2.301792     0.496118
H      2.919980     -2.707025    -1.718549
H      2.307459     -3.337303     0.706467
C      0.066192     -2.048895     0.053605
H      0.209619     -2.760697    -0.772111
H     -0.212658     -2.637908     0.934670
C     -1.046714     -1.100907    -0.285484
C     -2.176669     -0.976198     0.411136
H     -0.901129     -0.463542    -1.158525
H     -2.333056     -1.603401     1.288758
C     -3.244603     -0.041372     0.073823
C     -4.378164      0.063901     0.774022
H     -3.074174      0.583976    -0.799409
H     -4.505448     -0.584977     1.639918
C     -5.502917      0.973641     0.505432
C     -6.622734      0.923250     1.340026
C     -5.507922      1.892562    -0.548732
C     -7.712715      1.757703     1.133405
H     -6.635106      0.214824     2.163727
C     -6.595042      2.728166    -0.757189
H     -4.654855      1.959624    -1.214886
C     -7.702839      2.665316     0.081939
H     -8.570825      1.698160     1.795532
H     -6.578635      3.434987    -1.581024
H     -8.551788      3.320787    -0.084651
C      3.717947     -1.796313     1.399922
H      3.357783     -1.395405     2.352900
H      4.401148     -2.621403     1.630605
C      4.462821     -0.747546     0.556333
C      3.662727      0.567265     0.456267
H      5.462841     -0.539802     0.938906
H      2.987558      0.672432     1.311380
C      4.557399      1.790557     0.494554
O      5.757572      1.809461     0.561098
O      3.826065      2.930589     0.459869
H      4.457230      3.664522     0.485947
49
 -1042.13206504 -1041.76610900  0.63 0.56
C      1.513006      0.888894    -1.330212
C      1.829760      0.340540     0.086531
H      1.397100      0.137562    -2.118910
H      1.023978      0.478860     0.811106
C      2.375880     -1.098801     0.198356
C      3.139495     -1.190619     1.501953
H      1.574692     -1.838138     0.140015
H      2.880681     -1.926337     2.254163
C      4.160712     -0.343425     1.598312
C      4.322580      0.582114     0.420904
H      4.823880     -0.294189     2.455667
H      5.169118      1.264760     0.538292
C      3.008000      1.349549     0.195184
C      2.869986      1.643330    -1.326108
H      2.850441      2.179120     0.886109
H      2.812084      2.688010    -1.641897
C      0.306705      1.827948    -1.359605
H      0.413973      2.595396    -0.583156
H      0.297136      2.351896    -2.325170
C     -0.992874      1.098085    -1.177298
C     -1.880364      1.347284    -0.213881
H     -1.201651      0.295239    -1.886519
H     -1.678454      2.144295     0.501748
C     -3.130091      0.614319    -0.044886
C     -4.005017      0.868618     0.932760
H     -3.324115     -0.173402    -0.769157
H     -3.766158      1.664794     1.637098
C     -5.283036      0.181418     1.177089
C     -5.764658     -0.848880     0.363474
C     -6.058193      0.572506     2.272052
C     -6.977350     -1.463175     0.638692
H     -5.189740     -1.176462    -0.495685
C     -7.271948     -0.040984     2.550695
H     -5.698424      1.371498     2.914452
C     -7.737091     -1.063126     1.733206
H     -7.333587     -2.260751    -0.005924
H     -7.854718      0.280783     3.408106
H     -8.685481     -1.546478     1.945447
C      4.052469      0.898839    -1.960096
H      3.818978      0.480499    -2.944353
H      4.893903      1.588858    -2.089255
C      4.439654     -0.179380    -0.931799
C      3.409624     -1.340332    -0.924582
H      5.447055     -0.560568    -1.103789
H      2.906866     -1.369285    -1.898171
C      4.023879     -2.718604    -0.795492
O      3.625462     -3.606110    -0.087603
O      5.070683     -2.892398    -1.635067
H      5.375169     -3.803567    -1.512795
49
 -1042.13296224 -1041.76598700  0.07 0.64
C      1.409373      0.449525    -1.024488
C      2.906558      0.256258    -1.387755
H      1.216865      1.085400    -0.154695
H      3.207913      0.714648    -2.333311
C      3.956379      0.588997    -0.308673
C      5.207777     -0.196591    -0.641486
H      4.137811      1.664189    -0.255201
H      6.160238      0.293540    -0.811640
C      5.030005     -1.515714    -0.661904
C      3.613426     -1.967148    -0.418156
H      5.824822     -2.226330    -0.863284
H      3.511105     -3.055209    -0.453231
C      2.684914     -1.281235    -1.436424
C      1.294240     -1.078248    -0.770222
H      2.707362     -1.725011    -2.432960
H      0.429110     -1.553511    -1.238092
C      0.576226      0.940056    -2.199404
H      0.921610      1.940338    -2.495408
H      0.764564      0.296943    -3.071849
C     -0.907143      1.002438    -1.962247
C     -1.549485      0.680644    -0.838364
H     -1.501363      1.350946    -2.808322
H     -0.992743      0.326289     0.026390
C     -2.997657      0.767256    -0.686526
C     -3.641597      0.428823     0.434731
H     -3.548887      1.127442    -1.552145
H     -3.048432      0.069848     1.275174
C     -5.092796      0.482619     0.672718
C     -6.007671      0.938458    -0.281693
C     -5.587582      0.060583     1.909635
C     -7.366491      0.969036    -0.005255
H     -5.658380      1.275139    -1.251539
C     -6.947100      0.089154     2.189013
H     -4.890354     -0.296664     2.662468
C     -7.843492      0.544620     1.230669
H     -8.059912      1.327192    -0.759882
H     -7.305885     -0.245116     3.157439
H     -8.907611      0.569824     1.443150
C      1.506688     -1.521762     0.682711
H      0.930703     -0.929549     1.402059
H      1.195873     -2.565814     0.798590
C      3.024218     -1.417190     0.913095
C      3.471124      0.050774     1.069408
H      3.354448     -1.994935     1.777172
H      2.641015      0.669409     1.424949
C      4.567295      0.211910     2.104372
O      5.093736     -0.659006     2.744375
O      4.904934      1.514879     2.258361
H      5.604249      1.541858     2.927672
49
 -1042.13154466 -1041.76558200  0.96 0.89
C      1.555787      0.206172     0.310734
C      3.099899      0.226397     0.479925
H      1.181827     -0.223547    -0.623465
H      3.477539     -0.435733     1.263355
C      3.965349      0.061216    -0.787219
C      5.313477      0.684746    -0.496273
H      4.053006     -0.986982    -1.079720
H      6.228961      0.112409    -0.587908
C      5.261949      1.977304    -0.185556
C      3.871570      2.553896    -0.123772
H      6.137783      2.581087     0.028075
H      3.870084      3.615969     0.137761
C      3.024914      1.730341     0.862661
C      1.547197      1.757808     0.378397
H      3.216410      1.956117     1.912843
H      0.799339      2.185212     1.050480
C      0.838081     -0.462763     1.483962
H      1.111350     -1.523163     1.524016
H      1.190332     -0.006475     2.420173
C     -0.655165     -0.336853     1.393444
C     -1.497941     -1.365396     1.296121
H     -1.065141      0.673811     1.385921
H     -1.100487     -2.380290     1.297197
C     -2.946023     -1.227322     1.184776
C     -3.777411     -2.267840     1.074378
H     -3.331505     -0.210454     1.192048
H     -3.345307     -3.267974     1.067193
C     -5.243298     -2.220214     0.956186
C     -5.946577     -3.420533     0.823672
C     -5.973028     -1.027380     0.970871
C     -7.329871     -3.435423     0.708039
H     -5.394760     -4.356386     0.810373
C     -7.355200     -1.039040     0.856448
H     -5.459660     -0.077739     1.074004
C     -8.040853     -2.242227     0.724212
H     -7.852439     -4.381298     0.605257
H     -7.902946     -0.101841     0.870756
H     -9.122551     -2.247184     0.634664
C      1.608856      2.483752    -0.972013
H      0.889090      2.097288    -1.700474
H      1.389036      3.547486    -0.827312
C      3.068036      2.330713    -1.438418
C      3.347349      0.887906    -1.937327
H      3.326027      3.059848    -2.207542
H      2.400584      0.437832    -2.257063
C      4.217734      0.812653    -3.174416
O      5.129584      0.047874    -3.350955
O      3.817912      1.678558    -4.134141
H      4.401101      1.537661    -4.894371
49
 -1042.13190354 -1041.76541000  0.73 1.00
C      2.177944     -1.176477    -0.081077
C      1.690862      0.018381     0.781266
H      3.077183     -1.680807     0.287204
H      0.723063     -0.135326     1.263364
C      2.680589      0.617569     1.800698
C      2.243537      2.043589     2.065084
H      2.720681      0.016124     2.710938
H      1.994514      2.387844     3.063021
C      2.235963      2.817833     0.982283
C      2.595060      2.114894    -0.301002
H      1.967188      3.868934     0.997118
H      2.567172      2.784820    -1.164745
C      1.656227      0.910206    -0.491549
C      2.431355     -0.198793    -1.259677
H      0.658523      1.168252    -0.847471
H      2.041687     -0.522526    -2.227496
C      1.113698     -2.251342    -0.336184
H      1.524808     -2.975608    -1.052536
H      0.933761     -2.797967     0.596759
C     -0.197836     -1.738636    -0.862286
C     -1.357422     -1.821448    -0.208994
H     -0.192561     -1.275098    -1.848975
H     -1.381261     -2.285359     0.777364
C     -2.626737     -1.328407    -0.732201
C     -3.783900     -1.431859    -0.071219
H     -2.590399     -0.861217    -1.713625
H     -3.771530     -1.910211     0.907570
C     -5.104913     -0.966411    -0.521850
C     -5.309433     -0.311139    -1.740208
C     -6.212391     -1.185272     0.301928
C     -6.576666      0.107837    -2.117233
H     -4.472059     -0.123445    -2.403215
C     -7.482131     -0.767884    -0.073015
H     -6.070894     -1.693139     1.251966
C     -7.669367     -0.118235    -1.286454
H     -6.713831      0.615380    -3.067047
H     -8.326199     -0.950791     0.584557
H     -8.659589      0.210942    -1.585130
C      3.863074      0.346809    -1.355240
H      4.625344     -0.435623    -1.281073
H      4.001443      0.846775    -2.320435
C      3.970100      1.390317    -0.229854
C      4.092928      0.720153     1.153759
H      4.803879      2.077425    -0.379110
H      4.519346     -0.283538     1.058353
C      5.033253      1.471134     2.075929
O      5.626944      2.488266     1.834649
O      5.159917      0.835855     3.265965
H      5.769072      1.367217     3.799126
49
 -1042.13192149 -1041.76540200  0.72 1.01
C      2.026808     -0.614555     0.975654
C      2.156985      0.865153     0.525928
H      2.958321     -1.073195     1.323165
H      1.630123      1.587532     1.153928
C      3.574354      1.399279     0.232554
C      3.422497      2.577758    -0.706781
H      4.093957      1.663429     1.155715
H      3.792708      3.564031    -0.448730
C      2.839863      2.275621    -1.864976
C      2.385606      0.844661    -1.990642
H      2.670897      2.996048    -2.658548
H      1.904779      0.643289    -2.951767
C      1.452405      0.509212    -0.813422
C      1.617691     -0.999339    -0.471246
H      0.436044      0.889184    -0.920396
H      0.733727     -1.635715    -0.544964
C      0.953321     -0.879796     2.039096
H      0.873289     -1.962056     2.194870
H      1.297584     -0.447729     2.988427
C     -0.409750     -0.331420     1.719136
C     -1.489514     -1.080497     1.494140
H     -0.513421      0.752565     1.669951
H     -1.404516     -2.166285     1.542813
C     -2.807476     -0.539167     1.180723
C     -3.879109     -1.302661     0.946239
H     -2.882365      0.545165     1.142352
H     -3.755204     -2.384123     0.991868
C     -5.239138     -0.843073     0.623635
C     -5.590883      0.508150     0.546115
C     -6.231984     -1.796613     0.383018
C     -6.888983      0.887515     0.238432
H     -4.845893      1.274720     0.728814
C     -7.531908     -1.420108     0.073958
H     -5.975351     -2.850890     0.439170
C     -7.865982     -0.073800     0.000533
H     -7.141467      1.941950     0.183868
H     -8.284569     -2.180451    -0.109598
H     -8.880694      0.227031    -0.240225
C      2.767094     -1.462990    -1.375941
H      3.406655     -2.216529    -0.904821
H      2.358222     -1.907940    -2.290004
C      3.531188     -0.178376    -1.740762
C      4.381341      0.327887    -0.557789
H      4.165118     -0.306840    -2.618974
H      4.636831     -0.498161     0.113497
C      5.708530      0.906294    -1.007918
O      6.106449      1.015701    -2.137013
O      6.455148      1.296869     0.053169
H      7.280669      1.653266    -0.306254
49
 -1042.13057569 -1041.76529800  1.57 1.07
C      1.033626     -1.256410     0.108815
C      2.113652     -2.156955     0.766004
H      1.337382     -0.747426    -0.812362
H      1.888833     -3.226498     0.741188
C      3.582703     -1.939560     0.352544
C      4.448804     -2.456845     1.482200
H      3.799548     -2.427654    -0.599628
H      5.185829     -3.236754     1.324274
C      4.244278     -1.843862     2.646018
C      3.151478     -0.806741     2.631769
H      4.792244     -2.077613     3.552889
H      3.011869     -0.335607     3.608575
C      1.849456     -1.454885     2.127603
C      1.020660     -0.369485     1.380992
H      1.332207     -2.061393     2.872643
H      0.022962     -0.133122     1.757409
C     -0.286079     -1.986981    -0.137517
H     -0.119682     -2.767763    -0.891886
H     -0.605579     -2.494102     0.781138
C     -1.370661     -1.062534    -0.610041
C     -2.529255     -0.874398     0.021797
H     -1.166497     -0.517363    -1.531453
H     -2.715145     -1.452086     0.926532
C     -3.619397      0.025243    -0.381426
C     -3.547154      0.980216    -1.312602
H     -4.550386     -0.115303     0.162150
H     -2.598263      1.145183    -1.818720
C     -4.636204      1.877444    -1.731296
C     -5.957126      1.732728    -1.295340
C     -4.343704      2.924980    -2.608341
C     -6.944216      2.610518    -1.717127
H     -6.221859      0.922057    -0.625407
C     -5.329422      3.806642    -3.030830
H     -3.323202      3.049271    -2.960286
C     -6.635765      3.653316    -2.584927
H     -7.963992      2.479783    -1.368526
H     -5.075813      4.614903    -3.709560
H     -7.411023      4.338898    -2.912046
C      1.948944      0.850941     1.345646
H      1.850856      1.436905     0.426016
H      1.713106      1.516836     2.183212
C      3.364612      0.280888     1.539143
C      3.873193     -0.412867     0.258944
H      4.080312      1.041856     1.852509
H      3.371448     -0.005129    -0.624384
C      5.353085     -0.179981     0.026480
O      6.109455      0.436169     0.728971
O      5.761661     -0.756212    -1.129741
H      6.708217     -0.569242    -1.212016
49
 -1042.13061157 -1041.76511100  1.54 1.19
C      1.267599     -1.724189     0.001772
C      1.835658     -0.382626    -0.530431
H      0.955937     -1.725393     1.052070
H      1.204444      0.107577    -1.275424
C      2.305897      0.661666     0.501419
C      3.310749      1.557848    -0.192274
H      1.460814      1.218106     0.911305
H      3.164556      2.630232    -0.263095
C      4.379858      0.915476    -0.657452
C      4.354125     -0.578583    -0.464812
H      5.203655      1.407747    -1.163745
H      5.246009     -1.065941    -0.868139
C      3.068410     -1.144267    -1.094518
C      2.637005     -2.398357    -0.280854
H      3.102931     -1.234601    -2.181297
H      2.576262     -3.353893    -0.807802
C      0.132303     -2.284841    -0.854707
H      0.436191     -2.301668    -1.908642
H     -0.044830     -3.327575    -0.557974
C     -1.139613     -1.500535    -0.704415
C     -1.782812     -0.906826    -1.709518
H     -1.535548     -1.421868     0.308060
H     -1.378025     -1.025036    -2.713815
C     -3.015498     -0.111048    -1.620335
C     -3.577716      0.343876    -0.497371
H     -3.476638      0.123509    -2.576424
H     -3.085160      0.143048     0.451648
C     -4.819538      1.127532    -0.397299
C     -5.187203      1.648908     0.845844
C     -5.656792      1.375698    -1.489404
C     -6.344728      2.400302     0.997409
H     -4.550383      1.461679     1.706152
C     -6.813719      2.125601    -1.341093
H     -5.409510      0.972864    -2.465494
C     -7.162983      2.643737    -0.098069
H     -6.607234      2.796350     1.973366
H     -7.450983      2.305880    -2.201303
H     -8.069121      3.230655     0.013776
C      3.614410     -2.432001     0.900693
H      3.154496     -2.792569     1.826536
H      4.449230     -3.102692     0.668522
C      4.144169     -0.992751     1.020673
C      3.089682     -0.053414     1.640814
H      5.068838     -0.936548     1.596316
H      2.386574     -0.620107     2.259564
C      3.707883      0.973443     2.569084
O      4.875472      1.117967     2.816245
O      2.755843      1.750091     3.140230
H      3.219036      2.377535     3.714210
49
 -1042.13009120 -1041.76456800  1.87 1.53
C      1.336811     -1.339181     0.760996
C      1.898032     -0.686000    -0.530799
H      1.119891     -0.652187     1.584694
H      1.226932     -0.726696    -1.392654
C      2.489851      0.732823    -0.420178
C      3.456317      0.907626    -1.573193
H      1.701645      1.488317    -0.415125
H      3.338375      1.703807    -2.300205
C      4.459200      0.032261    -1.577153
C      4.404199     -0.998857    -0.479858
H      5.250205      0.027976    -2.319850
H      5.241066     -1.701130    -0.525904
C      3.050418     -1.728926    -0.543545
C      2.653823     -2.149885     0.899878
H      2.984685     -2.485857    -1.326655
H      2.516007     -3.214951     1.102537
C      0.112227     -2.220806     0.517835
H      0.325721     -2.899284    -0.320701
H     -0.065441     -2.850530     1.397074
C     -1.122377     -1.421181     0.218841
C     -2.235518     -1.458300     0.950779
H     -1.071855     -0.755448    -0.641912
H     -2.247673     -2.102112     1.829290
C     -3.469641     -0.695189     0.715450
C     -3.778886     -0.025260    -0.398118
H     -4.180840     -0.713830     1.537526
H     -3.083260     -0.052469    -1.234191
C     -5.003654      0.755155    -0.636477
C     -5.950811      1.013805     0.359230
C     -5.236302      1.268040    -1.915364
C     -7.091581      1.750852     0.079727
H     -5.793738      0.644378     1.366717
C     -6.377621      2.006033    -2.198280
H     -4.508132      1.080558    -2.699802
C     -7.312547      2.248978    -1.200372
H     -7.814163      1.941706     0.867142
H     -6.536493      2.391508    -3.200490
H     -8.207026      2.825010    -1.415213
C      3.731173     -1.511328     1.785345
H      3.344432     -1.170097     2.751050
H      4.520536     -2.243176     1.990296
C      4.314271     -0.366386     0.939446
C      3.348907      0.834749     0.874157
H      5.287734     -0.034820     1.302750
H      2.686046      0.842997     1.745186
C      4.078724      2.163136     0.908923
O      5.267580      2.336600     0.949994
O      3.205635      3.199202     0.904571
H      3.737112      4.008369     0.926605
49
 -1042.13089868 -1041.76452800  1.36 1.56
C     -2.280064     -0.473252     0.244844
C     -1.825161      0.235280     1.549483
H     -3.288333     -0.898790     0.277805
H     -1.688111      1.315794     1.464916
C     -2.614185     -0.072459     2.841449
C     -1.692803      0.213191     4.007847
H     -3.536746      0.508919     2.896459
H     -1.968108      0.919954     4.781632
C     -0.577479     -0.512073     4.013241
C     -0.418754     -1.429198     2.828941
H      0.178477     -0.448784     4.789003
H      0.510979     -2.004060     2.866281
C     -0.516728     -0.604458     1.533643
C     -1.133807     -1.504620     0.425668
H      0.389383     -0.052615     1.282370
H     -0.536386     -1.687604    -0.469538
C     -2.178655      0.378426    -1.027479
H     -2.413111     -0.253193    -1.892409
H     -2.954729      1.154333    -0.982204
C     -0.844573      1.035144    -1.251074
C     -0.020457      0.743733    -2.257830
H     -0.538327      1.800029    -0.537391
H     -0.312476     -0.016375    -2.982761
C      1.273986      1.384086    -2.464431
C      2.095151      1.074031    -3.472347
H      1.551733      2.145978    -1.739695
H      1.776190      0.301704    -4.171471
C      3.412374      1.665994    -3.754235
C      4.143211      1.191417    -4.846725
C      3.973028      2.686599    -2.979908
C      5.391285      1.712773    -5.159101
H      3.721998      0.398575    -5.458686
C      5.219372      3.210188    -3.289951
H      3.432549      3.079862    -2.125950
C      5.935077      2.726354    -4.380330
H      5.939236      1.326010    -6.012610
H      5.636471      4.002701    -2.676346
H      6.910265      3.138488    -4.619619
C     -1.513754     -2.796450     1.162859
H     -2.428800     -3.258372     0.778556
H     -0.707135     -3.530361     1.055395
C     -1.629099     -2.389945     2.643443
C     -2.929777     -1.584042     2.902340
H     -1.574527     -3.254348     3.306511
H     -3.664574     -1.846850     2.132698
C     -3.630604     -1.929334     4.199798
O     -4.100434     -1.143248     4.980072
O     -3.742754     -3.265671     4.379945
H     -4.230313     -3.393464     5.206895
49
 -1042.12953493 -1041.76428400  2.22 1.71
C      1.429107      1.269141    -0.722975
C      1.895555      0.301396     0.396681
H      1.101883      0.797628    -1.656096
H      1.236422      0.272654     1.267422
C      2.273825     -1.139961    -0.005919
C      3.215954     -1.670758     1.053062
H      1.389689     -1.770121    -0.120545
H      2.991188     -2.577906     1.601375
C      4.334830     -0.964776     1.193129
C      4.420751      0.257039     0.316308
H      5.125490     -1.220863     1.890654
H      5.351697      0.812446     0.462134
C      3.189999      1.146648     0.564940
C      2.851311      1.891235    -0.758094
H      3.244737      1.740227     1.478744
H      2.871671      2.983899    -0.749393
C      0.355902      2.255446    -0.262496
H      0.676399      2.747768     0.663970
H      0.257225      3.042437    -1.022704
C     -0.976651      1.595152    -0.053367
C     -1.656986      1.614567     1.092741
H     -1.378633      1.049966    -0.907371
H     -1.213418      2.137123     1.939418
C     -2.955630      0.979958     1.358376
C     -3.794481      0.492700     0.440101
H     -3.236884      0.938619     2.407763
H     -3.528074      0.584149    -0.610877
C     -5.090495     -0.156043     0.696759
C     -5.538477     -0.489335     1.978962
C     -5.916795     -0.458564    -0.388458
C     -6.771942     -1.094974     2.164931
H     -4.915699     -0.282224     2.842299
C     -7.153141     -1.063027    -0.205277
H     -5.581986     -0.210439    -1.391982
C     -7.586928     -1.382880     1.074733
H     -7.100539     -1.347460     3.168339
H     -7.778474     -1.284162    -1.064544
H     -8.552174     -1.856098     1.224487
C      3.820224      1.290021    -1.784843
H      3.385813      1.202830    -2.785823
H      4.708386      1.926437    -1.868016
C      4.230424     -0.070868    -1.193530
C      3.081216     -1.105932    -1.323100
H      5.144474     -0.452417    -1.650347
H      2.431981     -0.807081    -2.154162
C      3.536457     -2.498984    -1.704977
O      3.150260     -3.527624    -1.214858
O      4.408636     -2.486050    -2.739392
H      4.615904     -3.410936    -2.938178
49
 -1042.12955288 -1041.76423400  2.21 1.74
C      1.462598     -1.472135     0.223612
C      1.386689     -0.696878    -1.118417
H      1.666131     -0.867058     1.113919
H      0.389775     -0.669304    -1.564241
C      2.010512      0.713912    -1.173591
C      2.348117      1.000699    -2.620866
H      1.340524      1.466079    -0.752524
H      1.946240      1.868507    -3.130267
C      3.204615      0.139460    -3.163635
C      3.625013     -0.985840    -2.254783
H      3.568494      0.213170    -4.183157
H      4.325537     -1.673873    -2.736736
C      2.372615     -1.721969    -1.747218
C      2.674370     -2.273592    -0.324493
H      1.933012     -2.408506    -2.472328
H      2.613488     -3.354028    -0.171625
C      0.237192     -2.347140     0.488418
H      0.028005     -2.968909    -0.390826
H      0.471107     -3.032464     1.314487
C     -0.978347     -1.538636     0.840808
C     -2.127941     -1.572244     0.167228
H     -0.881516     -0.882972     1.706135
H     -2.203829     -2.256419    -0.676922
C     -3.340112     -0.790827     0.451441
C     -3.427898      0.247295     1.287321
H     -4.223823     -1.104597    -0.098433
H     -2.528568      0.582527     1.799563
C     -4.639868      1.025586     1.590067
C     -5.910589      0.673585     1.124585
C     -4.523015      2.170506     2.382471
C     -7.019643      1.445689     1.435490
H     -6.039565     -0.217180     0.519554
C     -5.631492      2.945679     2.695254
H     -3.543544      2.456083     2.756382
C     -6.886249      2.586629     2.220374
H     -7.997749      1.154552     1.065198
H     -5.514048      3.831906     3.310935
H     -7.756747      3.188584     2.461102
C      4.059935     -1.706156     0.011171
H      4.177605     -1.458420     1.070912
H      4.829703     -2.444674    -0.239510
C      4.220093     -0.481382    -0.907642
C      3.354449      0.707171    -0.410811
H      5.264310     -0.181716    -1.005397
H      3.175936      0.585983     0.663861
C      4.031717      2.057919    -0.513115
O      3.525917      3.073252    -0.914032
O      5.295305      2.034076    -0.029758
H      5.635537      2.938069    -0.099965
49
 -1042.12899661 -1041.76381300  2.56 2.00
C      1.044761      0.883477    -0.821134
C      2.262260      1.427198    -1.618263
H      0.940451      1.252566     0.203663
H      1.999973      2.079749    -2.455032
C      3.419544      2.063504    -0.819654
C      4.664479      1.964654    -1.674701
H      3.194982      3.094694    -0.540047
H      5.232327      2.847074    -1.944810
C      5.008119      0.720681    -1.997697
C      4.061121     -0.341403    -1.503219
H      5.885581      0.471123    -2.585104
H      4.374648     -1.348919    -1.791323
C      2.641177     -0.028477    -2.007076
C      1.623517     -0.551862    -0.953915
H      2.468613     -0.293960    -3.051220
H      0.905067     -1.310249    -1.274071
C     -0.282087      1.081479    -1.554768
H     -0.488597      2.153001    -1.655015
H     -0.186450      0.678053    -2.573079
C     -1.431951      0.416100    -0.854882
C     -2.492087      1.064664    -0.373009
H     -1.358413     -0.662070    -0.717770
H     -2.523710      2.147058    -0.491136
C     -3.638283      0.477446     0.335554
C     -3.939306     -0.822263     0.402546
H     -4.290978      1.197879     0.822441
H     -3.308820     -1.532240    -0.128774
C     -5.076560     -1.420239     1.120361
C     -5.914545     -0.690406     1.969517
C     -5.335666     -2.782834     0.951883
C     -6.976331     -1.303087     2.617565
H     -5.733194      0.366009     2.134433
C     -6.399162     -3.398597     1.597770
H     -4.691615     -3.365699     0.299046
C     -7.226075     -2.659362     2.433649
H     -7.613979     -0.719203     3.274103
H     -6.581843     -4.457962     1.447235
H     -8.058784     -3.135058     2.941939
C      2.501094     -1.026688     0.211758
H      2.044386     -0.853370     1.191266
H      2.681538     -2.103683     0.120649
C      3.834041     -0.276736     0.035589
C      3.694731      1.214606     0.442006
H      4.642959     -0.752443     0.591555
H      2.861764      1.309487     1.147956
C      4.879605      1.766464     1.206975
O      5.402765      2.834412     1.024604
O      5.274107      0.940616     2.203529
H      6.004826      1.384818     2.658105
49
 -1042.12922989 -1041.76302500  2.41 2.50
C      1.387197     -0.627793     0.514556
C      2.869325     -1.073252     0.647665
H      0.685145     -1.414584     0.221353
H      3.259179     -1.056705     1.668632
C      3.286842     -2.393466    -0.035001
C      4.777673     -2.319352    -0.285177
H      3.015159     -3.260993     0.569584
H      5.451946     -3.069902     0.109890
C      5.151530     -1.306563    -1.062633
C      4.030256     -0.396979    -1.491920
H      6.178605     -1.122311    -1.359949
H      4.376807      0.425061    -2.124732
C      3.295674      0.125598    -0.244823
C      1.803185      0.352505    -0.616878
H      3.815130      0.933403     0.272942
H      1.399294      1.362232    -0.513708
C      0.867713      0.067769     1.764550
H      0.873323     -0.644340     2.601552
H      1.569515      0.863600     2.054935
C     -0.510582      0.660294     1.658590
C     -1.307189      0.622473     0.590051
H     -0.862869      1.167732     2.556267
H     -0.942287      0.150939    -0.319149
C     -2.657300      1.195658     0.492052
C     -3.424246      1.587033     1.513547
H     -3.046158      1.272861    -0.520634
H     -3.051795      1.454909     2.527390
C     -4.770479      2.174158     1.419484
C     -5.350798      2.565940     0.208796
C     -5.509273      2.354210     2.591749
C     -6.626548      3.108398     0.175406
H     -4.798594      2.455853    -0.718055
C     -6.787498      2.894931     2.561254
H     -5.071525      2.059762     3.541709
C     -7.352939      3.273389     1.350408
H     -7.058038      3.408179    -0.774611
H     -7.342626      3.020427     3.485588
H     -8.351652      3.697320     1.320051
C      1.686164     -0.191849    -2.046922
H      0.723370     -0.673276    -2.248732
H      1.796324      0.629551    -2.763441
C      2.873356     -1.160074    -2.200641
C      2.620612     -2.481507    -1.426775
H      3.096253     -1.365005    -3.248484
H      1.539204     -2.622919    -1.317919
C      3.074940     -3.728860    -2.156106
O      3.671567     -4.653440    -1.669700
O      2.674020     -3.739940    -3.448263
H      2.973087     -4.581073    -3.823748
49
 -1042.12937344 -1041.76301800  2.32 2.50
C      1.734508      0.680265     0.715063
C      1.897502     -0.745391     0.118554
H      1.374368      1.450366     0.025605
H      1.198809     -1.483186     0.520484
C      1.961729     -0.882755    -1.417762
C      2.690624     -2.172973    -1.725500
H      0.967325     -0.861797    -1.868803
H      2.231017     -2.947272    -2.328187
C      3.930271     -2.228120    -1.246189
C      4.345999     -1.025685    -0.440147
H      4.597581     -3.070351    -1.396379
H      5.368099     -1.109505    -0.059848
C      3.337466     -0.807766     0.701527
C      3.260471      0.716373     0.999856
H      3.469199     -1.483040     1.548348
H      3.530832      1.055663     2.002925
C      0.901249      0.715430     1.988434
H      1.271986     -0.050924     2.684979
H      1.066775      1.675335     2.498142
C     -0.579957      0.527714     1.807432
C     -1.217152      0.360658     0.648451
H     -1.161088      0.531829     2.729187
H     -0.634303      0.320853    -0.268428
C     -2.666546      0.190532     0.470066
C     -3.607722      0.435313     1.386121
H     -2.966568     -0.149651    -0.518258
H     -3.304772      0.825838     2.355372
C     -5.057968      0.249665     1.218515
C     -5.624181     -0.374407     0.102570
C     -5.916295      0.713308     2.219096
C     -6.998797     -0.518751    -0.009206
H     -4.986188     -0.761305    -0.684487
C     -7.292819      0.570653     2.109832
H     -5.492985      1.196199     3.095654
C     -7.840714     -0.045172     0.991965
H     -7.418285     -1.007617    -0.883070
H     -7.938269      0.941822     2.899708
H     -8.916178     -0.159549     0.900468
C      4.128096      1.355966    -0.092599
H      3.747643      2.325148    -0.430488
H      5.141554      1.518042     0.291266
C      4.179275      0.310480    -1.221373
C      2.834541      0.254665    -1.994323
H      5.008611      0.493337    -1.905794
H      2.322714      1.217028    -1.878089
C      2.982791      0.104184    -3.494180
O      2.342839     -0.633845    -4.196426
O      3.896853      0.960384    -4.005781
H      3.900059      0.822011    -4.964304
49
 -1042.12840446 -1041.76255800  2.93 2.79
C      1.460833     -0.001644    -1.886010
C      1.729432     -0.934042    -0.673653
H      2.252610      0.011366    -2.642154
H      1.059674     -1.793487    -0.594095
C      3.182581     -1.405253    -0.443618
C      3.311582     -1.761279     1.021804
H      3.440007     -2.244281    -1.093161
H      3.629798     -2.748722     1.334465
C      3.059604     -0.753539     1.853033
C      2.635817      0.525401     1.179561
H      3.129469     -0.831586     2.932984
H      2.432882      1.327833     1.894527
C      1.413596      0.246522     0.287442
C      1.460816      1.218152    -0.925823
H      0.470428      0.168837     0.829213
H      0.622578      1.904971    -1.057746
C      0.131672     -0.244082    -2.613005
H     -0.002201      0.538926    -3.368800
H      0.207049     -1.196918    -3.154138
C     -1.083271     -0.280164    -1.727572
C     -2.066492      0.618274    -1.775217
H     -1.150971     -1.103151    -1.018066
H     -1.994744      1.415149    -2.514540
C     -3.275593      0.646331    -0.939444
C     -3.496914     -0.097030     0.148086
H     -4.032718      1.359106    -1.256508
H     -2.716983     -0.777612     0.483386
C     -4.709606     -0.087101     0.981815
C     -5.862213      0.630054     0.646163
C     -4.717829     -0.829844     2.165346
C     -6.976783      0.608992     1.470790
H     -5.895441      1.205316    -0.272612
C     -5.832099     -0.852683     2.993078
H     -3.832010     -1.396455     2.439240
C     -6.967440     -0.130353     2.649291
H     -7.862226      1.171675     1.191628
H     -5.812686     -1.435824     3.908404
H     -7.841736     -0.143853     3.292303
C      2.806148      1.941500    -0.772396
H      3.284305      2.169060    -1.730479
H      2.653437      2.892172    -0.249249
C      3.658168      1.012589     0.111919
C      4.149335     -0.224210    -0.686402
H      4.501342      1.540358     0.559484
H      4.171201      0.031711    -1.751937
C      5.576133     -0.634873    -0.387012
O      5.966575     -1.760260    -0.218089
O      6.423425      0.419984    -0.391904
H      7.309455      0.063969    -0.230334
