49
 -1042.13193943 -1041.75973700  0.00 0.00
C     -0.165816     -1.185409    -2.613200
C      0.158538     -0.613059    -4.019301
H     -1.079622     -1.786746    -2.730444
H     -0.126029     -1.265812    -4.852127
C      1.560601     -0.113650    -4.214552
C      1.834470      1.170211    -4.457690
H      2.364190     -0.845706    -4.176817
H      2.860847      1.485532    -4.626237
C      0.778083      2.193040    -4.525256
C     -0.480025      1.909853    -4.183586
H      1.051341      3.191491    -4.854610
H     -1.251134      2.674794    -4.231827
C     -0.841935      0.546867    -3.684282
C     -0.571034      0.219150    -2.187948
H     -1.862931      0.269956    -3.962934
H      0.345566      0.768263    -1.931188
C      0.702143     -1.850024    -1.568352
H      0.993641     -2.873172    -1.832549
H      1.620142     -1.274616    -1.398014
C     -0.159371     -1.864449    -0.282551
C      0.533627     -2.565384     0.856622
H     -1.053622     -2.462779    -0.527521
H      1.189012     -3.394919     0.596500
C      0.370298     -2.248862     2.134225
C     -0.525629     -1.139356     2.619298
H      0.912232     -2.795837     2.902270
H     -1.194194     -1.559412     3.379657
C      0.283300     -0.044042     3.306237
C     -0.204545      0.553791     4.466459
C      1.510603      0.385657     2.803602
C      0.504684      1.563735     5.104391
H     -1.154814      0.224541     4.878210
C      2.224672      1.393734     3.438759
H      1.920963     -0.084302     1.915894
C      1.723157      1.989014     4.590504
H      0.104817      2.015579     6.007002
H      3.179271      1.713973     3.032548
H      2.281639      2.776782     5.086161
C     -1.483200      0.225718    -0.981466
H     -1.767640      1.235121    -0.679793
H     -2.400416     -0.345510    -1.183448
C     -0.666411     -0.459900     0.142668
C     -1.430719     -0.617528     1.462235
H      0.204946      0.177822     0.332607
H     -2.220243     -1.365606     1.320849
C     -2.112180      0.656623     1.919337
O     -1.797285      1.782450     1.640145
O     -3.151411      0.388549     2.746303
H     -3.512581      1.243833     3.023213
49
 -1042.13077307 -1041.75818500  0.73 0.97
C     -0.414069     -2.821376     0.333672
C     -1.504097     -3.755061    -0.257746
H     -0.253889     -3.155384     1.369609
H     -1.486004     -4.778662     0.132832
C     -1.602475     -3.778139    -1.755505
C     -2.685652     -3.348457    -2.407152
H     -0.759122     -4.186638    -2.307734
H     -2.730115     -3.412993    -3.491196
C     -3.852594     -2.796327    -1.700101
C     -3.812470     -2.548690    -0.389775
H     -4.749583     -2.587529    -2.276167
H     -4.678563     -2.135776     0.121499
C     -2.559068     -2.792314     0.389875
C     -1.448553     -1.704360     0.348566
H     -2.772801     -3.089598     1.420767
H     -1.495804     -1.278034    -0.663119
C      0.911458     -2.341088    -0.213518
H      1.687068     -3.115637    -0.214314
H      0.802417     -1.976645    -1.242176
C      1.332210     -1.178530     0.717951
C      2.687120     -0.625515     0.359906
H      1.424732     -1.618345     1.725505
H      3.414403     -1.331371    -0.037729
C      3.041615      0.641654     0.526350
C      2.132492      1.702530     1.087809
H      4.037510      0.968710     0.236605
H      2.659353      2.193882     1.914374
C      1.846855      2.783630     0.050709
C      1.634640      2.472476    -1.291595
C      1.790623      4.120810     0.440142
C      1.364895      3.471690    -2.218288
H      1.694986      1.439554    -1.618625
C      1.520373      5.123087    -0.483129
H      1.955657      4.381953     1.481927
C      1.305165      4.801180    -1.817380
H      1.202770      3.209958    -3.259470
H      1.480732      6.158204    -0.157845
H      1.094881      5.581526    -2.541939
C     -1.095364     -0.596323     1.316008
H     -1.845887      0.196307     1.330272
H     -0.994535     -0.988527     2.337462
C      0.269006     -0.051663     0.821661
C      0.851085      1.062311     1.701453
H      0.106436      0.356051    -0.183108
H      1.149057      0.625650     2.661016
C     -0.100494      2.184695     2.066564
O     -0.031698      2.816202     3.090824
O     -1.014739      2.465252     1.114830
H     -1.509962      3.235666     1.429417
49
 -1042.12535398 -1041.75323300  4.13 4.08
C     -1.911160      1.305149    -1.657925
C     -1.919116      2.743494    -2.241775
H     -2.948514      1.087942    -1.363153
H     -2.846028      3.018895    -2.757027
C     -0.732759      3.112045    -3.084622
C      0.126333      4.070134    -2.728872
H     -0.602394      2.583475    -4.026238
H      0.954327      4.329266    -3.383500
C     -0.017238      4.817114    -1.468754
C     -0.915758      4.456749    -0.550810
H      0.634793      5.669572    -1.300889
H     -1.010290      5.012571     0.378719
C     -1.777769      3.253047    -0.765585
C     -1.175824      1.855916    -0.442731
H     -2.760915      3.368196    -0.299898
H     -0.110191      1.930220    -0.700592
C     -1.285183      0.019426    -2.151471
H     -1.804341     -0.413019    -3.014396
H     -0.238006      0.177635    -2.436582
C     -1.366532     -0.951130    -0.949193
C     -0.832716     -2.322415    -1.276007
H     -2.440589     -1.070924    -0.729385
H     -0.972725     -2.671159    -2.297581
C     -0.239766     -3.120693    -0.397242
C     -0.010637     -2.761539     1.049493
H      0.124240     -4.096156    -0.711298
H     -0.411809     -3.574185     1.666298
C      1.480209     -2.676595     1.359520
C      2.384431     -2.092825     0.469830
C      1.965095     -3.173418     2.568601
C      3.734410     -1.996594     0.789941
H      2.033231     -1.727552    -0.489951
C      3.312269     -3.080349     2.890612
H      1.273778     -3.625343     3.274798
C      4.202489     -2.488673     2.002086
H      4.422356     -1.538731     0.085873
H      3.667070     -3.470707     3.839358
H      5.256185     -2.414153     2.251107
C     -1.311813      0.964610     0.771905
H     -0.787275      1.363550     1.644956
H     -2.365135      0.832234     1.051741
C     -0.710187     -0.395538     0.340833
C     -0.812179     -1.483645     1.421857
H      0.350388     -0.218377     0.111187
H     -1.862379     -1.781944     1.495618
C     -0.470267     -0.990666     2.825365
O     -1.183062     -1.177041     3.771787
O      0.682088     -0.299028     2.979415
H      1.228868     -0.358842     2.184580
49
 -1042.11905564 -1041.74786900  8.08 7.45
C     -0.039541      2.568433    -1.328515
C      0.144569      4.108907    -1.277269
H     -1.080775      2.392672    -1.637354
H     -0.451756      4.662298    -2.011297
C      1.564017      4.597057    -1.295539
C      2.107469      5.253320    -0.267675
H      2.144042      4.419977    -2.198469
H      3.128925      5.618746    -0.333877
C      1.356599      5.522893     0.969097
C      0.156282      4.980009     1.180423
H      1.809204      6.172913     1.712501
H     -0.387396      5.181711     2.100034
C     -0.441758      4.047219     0.175478
C      0.013894      2.560153     0.194739
H     -1.533386      4.116536     0.155678
H      1.070816      2.579407     0.494297
C      0.818159      1.474146    -1.925327
H      0.795174      1.452430    -3.020831
H      1.863915      1.591594    -1.615410
C      0.244307      0.154114    -1.366382
C      1.008740     -1.072994    -1.798478
H     -0.783742      0.075323    -1.754730
H      1.860796     -0.965722    -2.465032
C      0.648740     -2.253055    -1.310532
C     -0.551194     -2.289002    -0.389021
H      1.193325     -3.163561    -1.528833
H     -1.407053     -1.925369    -0.977634
C     -0.951221     -3.677011     0.090386
C     -1.436143     -3.930633     1.371659
C     -0.901102     -4.742107    -0.811016
C     -1.831365     -5.209809     1.749240
H     -1.514898     -3.134179     2.104206
C     -1.295116     -6.019652    -0.440057
H     -0.555422     -4.566133    -1.825128
C     -1.759216     -6.262329     0.848316
H     -2.199867     -5.378958     2.756706
H     -1.241877     -6.829150    -1.161927
H     -2.066728     -7.260623     1.142816
C     -0.630958      1.326103     0.783630
H     -0.584108      1.295355     1.877051
H     -1.687449      1.261146     0.490364
C      0.159322      0.138050     0.189649
C     -0.355206     -1.239790     0.723572
H      1.196813      0.254051     0.531729
H     -1.306617     -1.072967     1.236004
C      0.638994     -1.721608     1.759273
O      1.546795     -2.485933     1.576065
O      0.416263     -1.141077     2.964554
H      1.106733     -1.462899     3.562869
49
 -1042.11848143 -1041.74718500  8.45 7.88
C      0.190045     -0.551994    -2.860526
C      0.086218     -0.066388    -4.331261
H     -0.509843     -1.395233    -2.762891
H     -0.133786     -0.857681    -5.056587
C      1.227781      0.776415    -4.821070
C      1.071490      2.052990    -5.179353
H      2.203245      0.302077    -4.901853
H      1.917606      2.619190    -5.559834
C     -0.231663      2.731756    -5.095018
C     -1.276094      2.150119    -4.502613
H     -0.320763      3.726033    -5.523363
H     -2.232783      2.662865    -4.441100
C     -1.135902      0.801079    -3.871751
C     -0.534702      0.721266    -2.439207
H     -2.064216      0.225470    -3.932895
H      0.207187      1.529643    -2.383171
C      1.388881     -0.830077    -1.981546
H      1.930771     -1.741226    -2.259479
H      2.098105      0.005790    -2.024165
C      0.829171     -0.974214    -0.548987
C      1.903190     -1.147198     0.496798
H      0.191486     -1.872621    -0.550560
H      2.944555     -1.197377     0.188395
C      1.557254     -1.171401     1.777215
C      0.083020     -1.111525     2.112478
H      2.292514     -1.223590     2.570893
H     -0.363611     -2.017055     1.674059
C     -0.244782     -1.187140     3.598197
C     -1.328882     -0.521060     4.168896
C      0.517120     -2.018798     4.422216
C     -1.620817     -0.656249     5.522615
H     -1.972059      0.113100     3.569079
C      0.228938     -2.156158     5.772562
H      1.344959     -2.578722     3.998851
C     -0.841379     -1.468293     6.333342
H     -2.468410     -0.121563     5.941000
H      0.842103     -2.806874     6.388868
H     -1.068642     -1.571871     7.389548
C     -1.198134      0.576232    -1.088996
H     -1.710916      1.484537    -0.755393
H     -1.935248     -0.237539    -1.106057
C     -0.052790      0.232256    -0.109532
C     -0.582941      0.058647     1.349244
H      0.628090      1.094553    -0.111211
H     -1.659574     -0.121247     1.300698
C     -0.437847      1.404834     2.026082
O     -1.284708      2.263136     2.018479
O      0.765089      1.588645     2.603338
H      0.761669      2.482461     2.975562
