49
 -1042.13014503 -1041.75789300  0.00 0.00
C     -0.154486     -2.067932    -0.927950
C     -0.844933     -2.629245    -2.200576
H     -0.923206     -2.031408    -0.143163
H     -1.648808     -3.347112    -2.002775
C      0.074899     -3.168323    -3.257333
C      0.173719     -2.615538    -4.468570
H      0.653803     -4.056383    -3.013765
H      0.827338     -3.056446    -5.216698
C     -0.596446     -1.418735    -4.843900
C     -1.302192     -0.739629    -3.937979
H     -0.569817     -1.095978    -5.880812
H     -1.862320      0.146899    -4.224969
C     -1.297598     -1.159686    -2.502213
C     -0.106806     -0.706158    -1.609691
H     -2.251092     -0.940263    -2.012834
H      0.772156     -0.684803    -2.269084
C      1.169440     -2.404358    -0.283751
H      1.176238     -3.377628     0.220479
H      1.964814     -2.419470    -1.037726
C      1.454662     -1.281420     0.748398
C      0.600843     -1.438369     1.985327
H      2.500683     -1.397507     1.066860
H      0.342575     -2.454476     2.279006
C      0.192939     -0.427109     2.741433
C      0.525611      1.020097     2.485821
H     -0.395545     -0.630940     3.633593
H      1.044088      1.377506     3.383789
C     -0.702472      1.914532     2.338635
C     -1.990414      1.410019     2.182655
C     -0.538811      3.300649     2.386656
C     -3.081955      2.264214     2.061988
H     -2.145724      0.336475     2.154893
C     -1.623747      4.156902     2.264487
H      0.455720      3.716670     2.527263
C     -2.904154      3.640109     2.098212
H     -4.076736      1.847260     1.937935
H     -1.470055      5.231026     2.303785
H     -3.756363      4.305211     2.002524
C     -0.002449      0.413221    -0.602047
H      0.036102      1.407117    -1.062172
H     -0.861381      0.396583     0.072369
C      1.311163      0.154999     0.174337
C      1.515478      1.184286     1.309858
H      2.124763      0.301855    -0.546035
H      1.402011      2.182396     0.874180
C      2.947224      1.109364     1.806321
O      3.315855      0.710909     2.880026
O      3.819484      1.553400     0.871471
H      4.705899      1.467216     1.251743
49
 -1042.12962465 -1041.75745900  0.33 0.27
C     -0.116385     -1.885566    -1.360280
C     -0.974798     -2.293022    -2.588698
H     -0.725724     -2.091239    -0.468761
H     -1.655641     -3.132730    -2.409701
C     -0.220937     -2.509337    -3.868587
C     -0.402445     -1.739584    -4.944125
H      0.475609     -3.343908    -3.906047
H      0.139563     -1.950199    -5.862369
C     -1.339505     -0.604509    -4.940427
C     -1.925607     -0.196824    -3.813427
H     -1.537100     -0.099400    -5.881646
H     -2.610996      0.647137    -3.821159
C     -1.614069     -0.864447    -2.511488
C     -0.326978     -0.429202    -1.753644
H     -2.476686     -0.862226    -1.838689
H      0.408237     -0.175562    -2.530066
C      1.330619     -2.154461    -1.023212
H      1.527620     -3.193571    -0.734840
H      1.968495     -1.927228    -1.885085
C      1.696227     -1.211252     0.153287
C      1.113990     -1.708265     1.453852
H      2.786829     -1.233801     0.258337
H      1.017054     -2.786813     1.570015
C      0.757974     -0.922392     2.462524
C      0.892518      0.577981     2.468214
H      0.371527     -1.366756     3.377592
H      1.542584      0.826924     3.315154
C     -0.414428      1.311635     2.754213
C     -1.659864      0.695184     2.689578
C     -0.357068      2.659096     3.116269
C     -2.821653      1.409620     2.965731
H     -1.726075     -0.354367     2.422071
C     -1.513267      3.375651     3.389800
H      0.611604      3.147919     3.186652
C     -2.754080      2.751677     3.312968
H     -3.783987      0.910447     2.907183
H     -1.446001      4.422899     3.668529
H     -3.661281      3.307704     3.526744
C     -0.144480      0.494546    -0.573922
H     -0.286547      1.550987    -0.829260
H     -0.861441      0.248455     0.213667
C      1.308055      0.275102    -0.080671
C      1.588000      1.110635     1.177499
H      1.968737      0.654851    -0.869325
H      1.212522      2.125646     1.001964
C      3.075643      1.302316     1.406516
O      3.975626      0.803484     0.782918
O      3.313117      2.172407     2.418616
H      4.274887      2.254358     2.495538
49
 -1042.12757904 -1041.75631400  1.61 0.99
C      1.873521     -0.125237     0.808133
C      3.101593     -0.116609     1.762006
H      1.207596      0.674487     1.157144
H      3.360872      0.871518     2.158341
C      4.335524     -0.796880     1.244727
C      4.841823     -1.892103     1.815965
H      4.836881     -0.347788     0.390432
H      5.756757     -2.333790     1.429963
C      4.208022     -2.526694     2.982911
C      3.014621     -2.124937     3.423269
H      4.735899     -3.338408     3.475317
H      2.551787     -2.605988     4.281489
C      2.268817     -1.038915     2.714358
C      1.424609     -1.423366     1.465012
H      1.672243     -0.440335     3.409339
H      1.945048     -2.259463     0.981932
C      1.816179     -0.200973    -0.707484
H      1.650667      0.785273    -1.153289
H      2.750300     -0.587917    -1.127881
C      0.661580     -1.177999    -1.109377
C      0.150424     -0.836983    -2.485006
H      1.098950     -2.182736    -1.158136
H      0.802269     -1.064368    -3.326516
C     -1.021339     -0.256763    -2.712595
C     -2.008803      0.101035    -1.629730
H     -1.325496     -0.035116    -3.733031
H     -2.805911     -0.653794    -1.646367
C     -2.658585      1.455761    -1.853349
C     -1.902401      2.552233    -2.266945
C     -4.018902      1.634885    -1.610164
C     -2.492618      3.797657    -2.437251
H     -0.841889      2.425239    -2.465660
C     -4.612276      2.880665    -1.777206
H     -4.618627      0.790407    -1.282177
C     -3.850823      3.966400    -2.191787
H     -1.890156      4.640409    -2.762551
H     -5.673800      3.001950    -1.583785
H     -4.312475      4.939815    -2.324036
C     -0.075931     -1.598819     1.359574
H     -0.393928     -2.613191     1.616522
H     -0.568876     -0.927649     2.071261
C     -0.517060     -1.255503    -0.104207
C     -1.356061      0.031117    -0.229986
H     -1.163251     -2.068772    -0.452873
H     -0.726596      0.912803    -0.081854
C     -2.454580      0.047923     0.810554
O     -3.344446     -0.761223     0.883261
O     -2.343822      1.076970     1.677133
H     -3.087330      1.005777     2.294604
49
 -1042.12555137 -1041.75510000  2.88 1.75
C     -0.048619     -2.697909     0.406801
C      0.480003     -4.093735    -0.021678
H     -1.012847     -2.564091    -0.102941
H     -0.301717     -4.839221    -0.205545
C      1.553639     -4.680064     0.848355
C      2.791126     -4.907106     0.401574
H      1.284537     -4.944687     1.868473
H      3.530470     -5.363788     1.054354
C      3.196499     -4.573534    -0.973415
C      2.392600     -3.879696    -1.781153
H      4.174409     -4.901974    -1.313795
H      2.704437     -3.633590    -2.793161
C      1.066973     -3.388311    -1.292442
C      1.034216     -2.073115    -0.462806
H      0.324563     -3.356474    -2.095306
H      1.969072     -2.061960     0.114840
C     -0.120021     -2.029092     1.760519
H     -0.895071     -2.446426     2.413742
H      0.838685     -2.126655     2.282200
C     -0.420780     -0.533756     1.494732
C     -1.844552     -0.313168     1.039034
H     -0.287915      0.009847     2.440705
H     -2.547218     -1.141569     1.066985
C     -2.226197      0.893299     0.641669
C     -1.247224      2.041456     0.695857
H     -3.249612      1.094423     0.339111
H     -1.132451      2.320587     1.749693
C     -1.711413      3.277085    -0.049163
C     -2.250115      3.176195    -1.331995
C     -1.574290      4.541262     0.520139
C     -2.652263      4.309563    -2.026106
H     -2.359780      2.196967    -1.790761
C     -1.974087      5.678226    -0.172483
H     -1.139859      4.632884     1.510962
C     -2.516047      5.566523    -1.446935
H     -3.072756      4.212041    -3.022572
H     -1.860665      6.655712     0.286716
H     -2.829666      6.453801    -1.987807
C      0.688041     -0.657996    -0.857951
H      1.455997     -0.184118    -1.479167
H     -0.258054     -0.628633    -1.412329
C      0.547997      0.127272     0.468981
C      0.151056      1.611961     0.186762
H      1.544050      0.120156     0.930581
H      0.181075      1.758020    -0.896551
C      1.215540      2.512711     0.773616
O      1.176029      3.061281     1.845117
O      2.290211      2.608766    -0.041279
H      2.941995      3.160629     0.415821
49
 -1042.12567697 -1041.75477800  2.80 1.95
C     -0.142480     -1.933116    -0.651008
C     -0.003575     -3.266447    -1.438973
H     -0.119575     -1.128874    -1.397944
H     -0.441656     -3.247337    -2.443161
C     -0.447987     -4.503032    -0.713446
C      0.398344     -5.479578    -0.378372
H     -1.507514     -4.600440    -0.488042
H      0.028921     -6.373716     0.116867
C      1.837524     -5.400253    -0.676229
C      2.382337     -4.280402    -1.154415
H      2.449109     -6.278575    -0.490394
H      3.448078     -4.230155    -1.363852
C      1.546266     -3.057558    -1.364353
C      1.278134     -2.133578    -0.141670
H      1.899653     -2.469901    -2.216978
H      1.246310     -2.783581     0.741424
C     -1.100326     -1.556564     0.465268
H     -1.946311     -0.971385     0.090527
H     -1.517282     -2.443521     0.953662
C     -0.307415     -0.738497     1.538927
C     -1.241594      0.175507     2.289421
H      0.096884     -1.462368     2.257154
H     -1.935231     -0.289244     2.987673
C     -1.278371      1.491350     2.120743
C     -0.366512      2.247080     1.184022
H     -1.981379      2.091071     2.694424
H      0.401242      2.731557     1.800819
C     -1.092382      3.339905     0.418358
C     -2.340284      3.102672    -0.156610
C     -0.504535      4.590942     0.246341
C     -2.986313      4.093700    -0.883923
H     -2.813327      2.133516    -0.025385
C     -1.146500      5.585041    -0.483095
H      0.467894      4.790740     0.688525
C     -2.390348      5.339051    -1.050743
H     -3.959040      3.893478    -1.322849
H     -0.673282      6.554527    -0.605656
H     -2.894974      6.113434    -1.619825
C      1.929402     -0.808375     0.195623
H      2.841822     -0.937645     0.785238
H      2.221663     -0.302386    -0.730651
C      0.900468      0.066467     0.990528
C      0.352711      1.281107     0.214575
H      1.417702      0.469914     1.868095
H     -0.359754      0.951034    -0.545207
C      1.437469      2.011564    -0.544484
O      1.488567      2.141566    -1.739080
O      2.390201      2.519531     0.273300
H      3.037249      2.961772    -0.295174
49
 -1042.12111920 -1041.75035600  5.66 4.73
C     -1.958592      0.626324    -0.147939
C     -3.274966      1.442330    -0.287101
H     -1.275719      1.247269     0.446622
H     -3.499386      2.090022     0.567744
C     -4.495584      0.653418    -0.662344
C     -5.138696      0.836351    -1.817747
H     -4.870498     -0.067455     0.060587
H     -6.038735      0.267429    -2.035515
C     -4.678992      1.811226    -2.820027
C     -3.511316      2.441715    -2.684131
H     -5.314372      2.000899    -3.680429
H     -3.177685      3.154527    -3.434285
C     -2.616715      2.143116    -1.522759
C     -1.679227      0.904800    -1.618277
H     -2.052005      3.027118    -1.211678
H     -2.209717      0.158896    -2.222954
C     -1.748268     -0.834208     0.210119
H     -1.452885     -0.951795     1.257918
H     -2.662537     -1.420380     0.070293
C     -0.646841     -1.423163    -0.732734
C      0.021915     -2.597369    -0.066305
H     -1.163208     -1.800020    -1.623933
H     -0.568583     -3.505200     0.043431
C      1.259028     -2.570111     0.412788
C      2.173037     -1.374497     0.311312
H      1.676254     -3.456044     0.886013
H      2.886472     -1.572415    -0.499490
C      2.975114     -1.135035     1.579341
C      4.322764     -0.788144     1.509270
C      2.368904     -1.217011     2.833119
C      5.051763     -0.534369     2.665002
H      4.804666     -0.710040     0.538706
C      3.095266     -0.967296     3.990326
H      1.319773     -1.491158     2.902482
C      4.440477     -0.624737     3.909540
H      6.101396     -0.266605     2.591965
H      2.609862     -1.039642     4.958870
H      5.008898     -0.428842     4.813204
C     -0.194575      0.866434    -1.910827
H      0.018103      0.858535    -2.983178
H      0.279210      1.769335    -1.507999
C      0.415501     -0.409292    -1.234993
C      1.391047     -0.100410    -0.087984
H      1.004622     -0.933569    -1.994589
H      0.829699      0.252042     0.786720
C      2.413129      0.947747    -0.510546
O      3.037365      0.880076    -1.532367
O      2.618952      1.980086     0.338425
H      2.105884      1.859111     1.146333
49
 -1042.11998872 -1041.74904800  6.37 5.55
C      0.143156     -2.531676     0.479701
C     -0.412149     -3.877735    -0.059931
H     -0.603505     -2.153549     1.191694
H     -1.011005     -4.444364     0.661805
C      0.589861     -4.782158    -0.716608
C      0.524316     -5.101014    -2.011368
H      1.374693     -5.200604    -0.090510
H      1.250780     -5.785821    -2.441004
C     -0.524658     -4.564736    -2.893686
C     -1.356660     -3.609301    -2.475560
H     -0.600159     -4.962972    -3.901532
H     -2.123898     -3.215852    -3.137785
C     -1.218089     -3.030144    -1.103337
C     -0.153862     -1.917715    -0.881995
H     -2.185092     -2.726966    -0.691373
H      0.679015     -2.164509    -1.554877
C      1.517148     -2.138700     0.972293
H      1.762832     -2.553011     1.956951
H      2.286526     -2.479397     0.270237
C      1.528130     -0.590537     1.044284
C      0.669994     -0.090380     2.181404
H      2.560728     -0.269325     1.227714
H      0.444875     -0.777220     2.994653
C      0.204753      1.149881     2.232514
C      0.552476      2.212207     1.218453
H     -0.394338      1.477115     3.079037
H      1.374349      2.781118     1.675718
C     -0.575370      3.204720     0.993446
C     -0.324604      4.575882     1.021851
C     -1.875196      2.772233     0.733027
C     -1.342601      5.493849     0.784388
H      0.676489      4.933730     1.250874
C     -2.895001      3.684626     0.499251
H     -2.092132      1.709048     0.723969
C     -2.631526      5.050115     0.520694
H     -1.126593      6.557442     0.812499
H     -3.901089      3.328368     0.300104
H     -3.428733      5.763150     0.336957
C     -0.288468     -0.415127    -0.804036
H     -0.498943      0.044193    -1.776688
H     -1.097606     -0.138245    -0.119801
C      1.074618      0.094684    -0.272292
C      1.085371      1.627490    -0.141204
H      1.817976     -0.157937    -1.036882
H      0.446783      2.022769    -0.940677
C      2.476476      2.199417    -0.390331
O      3.502569      1.585345    -0.323149
O      2.506055      3.523586    -0.686377
H      1.611306      3.888029    -0.712512
49
 -1042.12043732 -1041.74850600  6.09 5.89
C     -0.060301     -2.280724    -0.104902
C     -0.751998     -3.292465    -1.058749
H     -0.826432     -1.944509     0.608335
H     -1.554672     -3.877990    -0.596631
C      0.166800     -4.199127    -1.824930
C      0.263881     -4.159824    -3.155813
H      0.747153     -4.922454    -1.256533
H      0.917112     -4.856239    -3.675045
C     -0.507591     -3.202596    -3.965187
C     -1.213056     -2.225616    -3.392809
H     -0.481925     -3.307175    -5.046150
H     -1.773847     -1.519905    -4.000743
C     -1.207263     -2.055822    -1.906536
C     -0.017495     -1.289426    -1.260453
H     -2.161175     -1.665296    -1.539990
H      0.862006     -1.520620    -1.877361
C      1.268088     -2.337751     0.609306
H      1.284880     -3.042023     1.449196
H      2.058121     -2.641103    -0.087202
C      1.561533     -0.905352     1.128780
C      0.750891     -0.591350     2.360634
H      2.614086     -0.883672     1.429572
H      0.546362     -1.420253     3.036934
C      0.320225      0.619441     2.691225
C      0.569607      1.866698     1.881983
H     -0.232490      0.758957     3.617891
H      1.053532      2.572293     2.572780
C     -0.715312      2.565430     1.437129
C     -0.649338      3.862688     0.925641
C     -1.967560      1.966904     1.544233
C     -1.792128      4.536825     0.519004
H      0.310148      4.367499     0.838833
C     -3.116851      2.638390     1.140559
H     -2.047965      0.962316     1.945591
C     -3.035260      3.923775     0.623522
H     -1.710708      5.544323     0.123042
H     -4.081407      2.148652     1.231221
H     -3.933016      4.445286     0.307921
C      0.079156      0.132077    -0.763463
H      0.113317      0.869276    -1.574129
H     -0.786253      0.369981    -0.140051
C      1.390116      0.211225     0.060149
C      1.550927      1.601079     0.698436
H      2.216006      0.094475    -0.651294
H      1.342524      2.345907    -0.081080
C      2.999419      1.862331     1.114154
O      3.888779      1.061086     1.086719
O      3.270568      3.133021     1.511004
H      2.478809      3.681354     1.465257
49
 -1042.11751245 -1041.74663900  7.93 7.06
C     -1.922561      0.578049    -0.036282
C     -3.274680      1.297094    -0.306840
H     -1.144845      1.350630    -0.094955
H     -3.310484      2.337632     0.034538
C     -4.504275      0.567896     0.150834
C     -5.427619      0.116754    -0.701272
H     -4.643135      0.439116     1.221806
H     -6.320005     -0.376771    -0.325408
C     -5.292114      0.282357    -2.157452
C     -4.165961      0.751977    -2.696601
H     -6.134102      0.006157    -2.785756
H     -4.073688      0.864201    -3.774086
C     -2.991477      1.086476    -1.832179
C     -2.040336     -0.069338    -1.409363
H     -2.417116      1.924057    -2.239219
H     -2.660330     -0.969997    -1.321423
C     -1.553422     -0.428755     1.038905
H     -1.023895      0.045333     1.871446
H     -2.441521     -0.912178     1.458796
C     -0.660304     -1.537211     0.387545
C      0.241613     -2.159406     1.421858
H     -1.337159     -2.319211     0.022199
H     -0.222145     -2.824497     2.147745
C      1.544090     -1.918681     1.504768
C      2.298823     -1.012806     0.560415
H      2.134791     -2.401656     2.279808
H      2.885863     -1.666494    -0.103187
C      3.288385     -0.112541     1.282166
C      4.541277      0.144419     0.730876
C      2.946311      0.501677     2.485577
C      5.436487      0.995631     1.367677
H      4.820604     -0.318235    -0.212189
C      3.839706      1.350310     3.126585
H      1.974202      0.306415     2.929103
C      5.088425      1.600622     2.568850
H      6.408860      1.184828     0.923488
H      3.559740      1.818641     4.065204
H      5.786314      2.264405     3.069285
C     -0.677104     -0.416926    -1.971408
H     -0.750771     -1.101637    -2.822213
H     -0.188570      0.491725    -2.339034
C      0.178382     -1.065628    -0.830053
C      1.324365     -0.177472    -0.304259
H      0.633037     -1.982971    -1.231740
H      0.915133      0.619448     0.319515
C      2.082051      0.541406    -1.411651
O      2.215568      1.728882    -1.474802
O      2.634357     -0.250177    -2.368303
H      2.399235     -1.173551    -2.219308
49
 -1042.11485674 -1041.74494000  9.59 8.13
C     -0.768251     -1.062885     2.370673
C     -0.449064     -1.361760     3.860673
H     -0.516172     -1.974683     1.811385
H     -0.599666     -2.405772     4.157111
C     -1.092215     -0.445438     4.860832
C     -0.381090      0.363838     5.649426
H     -2.176090     -0.476905     4.946263
H     -0.883633      0.988110     6.383599
C      1.087341      0.431218     5.575414
C      1.759120     -0.191470     4.605381
H      1.612978      1.009057     6.330274
H      2.843470     -0.130648     4.556599
C      1.027983     -0.946131     3.540643
C      0.444482     -0.141862     2.344191
H      1.603433     -1.805159     3.183412
H      0.142680      0.831010     2.756730
C     -1.964637     -0.409400     1.719119
H     -2.859456     -1.042449     1.710745
H     -2.221198      0.518107     2.243127
C     -1.550464     -0.087649     0.262598
C     -1.483670     -1.326459    -0.599571
H     -2.337994      0.556594    -0.160339
H     -1.839043     -2.271530    -0.198352
C     -1.030050     -1.239501    -1.842845
C     -0.611421      0.104429    -2.394439
H     -1.007436     -2.102979    -2.500811
H     -1.538623      0.661343    -2.595151
C      0.143182      0.019343    -3.706515
C      1.174343     -0.904255    -3.872921
C     -0.154713      0.885716    -4.754921
C      1.884535     -0.967878    -5.064277
H      1.421293     -1.583961    -3.061833
C      0.556003      0.827381    -5.948421
H     -0.947074      1.620210    -4.637020
C      1.576651     -0.101144    -6.107430
H      2.682011     -1.695743    -5.179133
H      0.309874      1.510327    -6.755740
H      2.131394     -0.149827    -7.039046
C      0.959642      0.058216     0.940166
H      1.831026      0.720288     0.886393
H      1.239822     -0.900861     0.488504
C     -0.205107      0.693425     0.140406
C      0.228111      0.889843    -1.343655
H     -0.368406      1.681107     0.592509
H      1.259391      0.547872    -1.442148
C      0.279517      2.362390    -1.725612
O      1.260852      2.927064    -2.111738
O     -0.891088      3.046191    -1.613176
H     -1.582574      2.473273    -1.261078
