49
 -1042.12693305 -1041.75370700  0.00 0.00
C     -0.097665     -2.244562    -0.700328
C     -0.914132     -2.923584    -1.833279
H     -0.775834     -2.139956     0.158540
H     -1.682564     -3.622455    -1.484218
C     -0.107461     -3.556359    -2.929635
C     -0.146417     -3.118204    -4.190095
H      0.505252     -4.416730    -2.669837
H      0.428038     -3.625234    -4.960959
C     -0.966596     -1.962566    -4.587904
C     -1.578872     -1.204384    -3.676771
H     -1.054947     -1.736319    -5.646717
H     -2.176497     -0.348798    -3.981747
C     -1.415670     -1.489908    -2.217497
C     -0.143036     -0.950064    -1.502046
H     -2.314734     -1.229365    -1.651380
H      0.660056     -0.983235    -2.251964
C      1.294160     -2.514844    -0.182093
H      1.372028     -3.435734     0.407553
H      1.997548     -2.600246    -1.018275
C      1.681674     -1.296274     0.695617
C      1.005291     -1.350472     2.047469
H      2.763774     -1.366600     0.881258
H      0.816835     -2.340111     2.460484
C      0.667722     -0.285721     2.766545
C      0.908186      1.143023     2.344001
H      0.197461     -0.425972     3.737623
H      1.500254      1.615820     3.138147
C     -0.384357      1.958238     2.268251
C     -1.638240      1.356213     2.186569
C     -0.330434      3.350956     2.347322
C     -2.798782      2.119930     2.141721
H     -1.711796      0.274288     2.164815
C     -1.485915      4.118931     2.297802
H      0.628865      3.844602     2.460672
C     -2.727984      3.505824     2.186916
H     -3.762791      1.625513     2.071776
H     -1.414154      5.200867     2.354278
H     -3.633935      4.102280     2.147830
C      0.044061      0.260219    -0.618656
H      0.006945      1.205972    -1.161532
H     -0.734781      0.282961     0.144231
C      1.441050      0.088872     0.026764
C      1.816639      1.145033     1.078089
H      2.168759      0.185560    -0.789555
H      2.809528      0.867331     1.455087
C      2.015392      2.526573     0.489951
O      1.611292      2.934500    -0.565956
O      2.778740      3.299843     1.303198
H      2.878048      4.154349     0.857931
49
 -1042.12483361 -1041.75209100  1.32 1.01
C      0.353057     -1.536111    -1.690457
C      0.161486     -1.394570    -3.224954
H     -0.639738     -1.741051    -1.265142
H     -0.642957     -2.010856    -3.641835
C      1.403914     -1.545506    -4.053747
C      1.904501     -0.543882    -4.780721
H      1.883382     -2.521770    -4.066664
H      2.787968     -0.704103    -5.393205
C      1.284556      0.790913    -4.799127
C      0.291202      1.102222    -3.964690
H      1.662991      1.522533    -5.507358
H     -0.155019      2.093547    -3.982401
C     -0.194539      0.107808    -2.958163
C      0.597476     -0.034046    -1.626223
H     -1.264106      0.222904    -2.759340
H      1.650410      0.152976    -1.880652
C      1.384408     -2.288846    -0.885541
H      1.244162     -3.375992    -0.898562
H      2.388461     -2.083297    -1.274009
C      1.277309     -1.765419     0.570453
C      0.084249     -2.358490     1.287248
H      2.171483     -2.120292     1.103837
H     -0.199611     -3.370866     1.004322
C     -0.600589     -1.750815     2.249891
C     -0.296946     -0.366861     2.769530
H     -1.436871     -2.268062     2.715614
H     -0.156031     -0.445212     3.854687
C     -1.476463      0.592761     2.586901
C     -1.572551      1.739677     3.378303
C     -2.514337      0.324757     1.695537
C     -2.645526      2.611718     3.248116
H     -0.801980      1.950800     4.111249
C     -3.591620      1.193119     1.564705
H     -2.486415     -0.580267     1.098242
C     -3.657846      2.346920     2.334033
H     -2.692622      3.499598     3.871442
H     -4.382617      0.962855     0.857604
H     -4.497173      3.027339     2.230412
C      0.307164      0.518510    -0.251096
H      0.458475      1.597107    -0.180090
H     -0.728885      0.311649     0.017013
C      1.279575     -0.212922     0.707270
C      1.082476      0.079355     2.203992
H      2.287631      0.128313     0.441840
H      1.800380     -0.563322     2.731334
C      1.482621      1.457238     2.694092
O      1.581000      1.743864     3.861443
O      1.778569      2.344103     1.723137
H      2.045534      3.159962     2.171732
49
 -1042.12456445 -1041.75142900  1.49 1.43
C     -0.131305     -2.096691    -1.252233
C     -0.714248     -2.456205    -2.645996
H     -0.979272     -2.076195    -0.553708
H     -1.587476     -3.117462    -2.616562
C      0.274175     -2.958290    -3.657953
C      0.550593     -2.289822    -4.780015
H      0.752366     -3.915194    -3.461061
H      1.248341     -2.704341    -5.502944
C     -0.078341     -0.995873    -5.090979
C     -0.827580     -0.358333    -4.189841
H      0.089877     -0.567039    -6.074776
H     -1.282022      0.600220    -4.428154
C     -1.016996     -0.928623    -2.820001
C      0.097499     -0.681052    -1.762802
H     -1.999887     -0.679199    -2.409728
H      1.043252     -0.669699    -2.322781
C      1.084339     -2.608578    -0.517363
H      0.962287     -3.622816    -0.119664
H      1.954410     -2.618687    -1.183730
C      1.335058     -1.617871     0.649039
C      0.311799     -1.798613     1.746801
H      2.320784     -1.858817     1.073209
H     -0.122054     -2.790178     1.863021
C     -0.071786     -0.835326     2.575618
C      0.487016      0.571628     2.580500
H     -0.815937     -1.059507     3.335752
H      0.981181      0.699488     3.552325
C     -0.643125      1.603930     2.600845
C     -1.430277      1.647704     3.755890
C     -0.931581      2.510137     1.584750
C     -2.477373      2.546520     3.886601
H     -1.214545      0.961545     4.570941
C     -1.981551      3.416299     1.712018
H     -0.344043      2.538956     0.677928
C     -2.761612      3.438562     2.857394
H     -3.070177      2.554418     4.796227
H     -2.184843      4.109417     0.901117
H     -3.579199      4.145906     2.952354
C      0.178581      0.323141    -0.636986
H      0.342912      1.340340    -1.000544
H     -0.744998      0.307162    -0.049383
C      1.383628     -0.120868     0.228674
C      1.609713      0.688963     1.517519
H      2.276472      0.024223    -0.391376
H      2.486791      0.234712     2.000213
C      2.060461      2.112969     1.264334
O      2.234701      2.626107     0.188984
O      2.314983      2.766103     2.418168
H      2.609012      3.656825     2.178356
49
 -1042.12120892 -1041.74936600  3.59 2.72
C     -0.534377     -2.157572    -0.074548
C     -1.069622     -3.573969    -0.430514
H     -1.420686     -1.524907     0.050806
H     -2.037217     -3.820200     0.021119
C     -0.107834     -4.707170    -0.221638
C      0.356909     -5.447258    -1.230883
H      0.186547     -4.934885     0.800300
H      1.026676     -6.279833    -1.032217
C     -0.024189     -5.186124    -2.628460
C     -0.725518     -4.101220    -2.961077
H      0.287122     -5.898814    -3.386908
H     -0.994833     -3.914734    -3.997911
C     -1.111691     -3.097100    -1.921296
C     -0.064303     -2.020411    -1.516522
H     -2.073300     -2.628502    -2.151322
H      0.922448     -2.490289    -1.614492
C      0.521698     -1.740742     0.933381
H      0.069268     -1.355330     1.848897
H      1.164517     -2.582911     1.210483
C      1.430524     -0.648790     0.277568
C      2.062089      0.218730     1.335714
H      2.249080     -1.197863    -0.205958
H      2.697984     -0.290805     2.058174
C      1.886979      1.528975     1.444770
C      1.057363      2.345917     0.483669
H      2.399462      2.076689     2.231698
H      1.752939      2.745373    -0.269011
C      0.379578      3.553676     1.110400
C     -0.020855      3.567590     2.444773
C      0.132941      4.681662     0.328203
C     -0.649430      4.683671     2.982705
H      0.144242      2.689885     3.058782
C     -0.500297      5.797410     0.860744
H      0.443776      4.688165    -0.713933
C     -0.893413      5.801708     2.193938
H     -0.955355      4.677090     4.024635
H     -0.684110      6.665051     0.234340
H     -1.387184      6.670960     2.616836
C     -0.002553     -0.567671    -1.934697
H      0.459514     -0.439471    -2.918649
H     -1.017126     -0.162842    -2.004199
C      0.811905      0.224963    -0.855825
C      0.067847      1.466020    -0.310554
H      1.683226      0.651867    -1.367503
H     -0.302283      2.041232    -1.164668
C     -1.150307      1.104960     0.515801
O     -1.161549      0.801409     1.678687
O     -2.289919      1.160333    -0.214956
H     -3.016680      0.926077     0.381319
49
 -1042.11909152 -1041.74669400  4.92 4.40
C     -0.406822     -1.226612    -1.781670
C     -0.672090     -1.799586    -3.203361
H     -1.173176     -0.460001    -1.618790
H     -1.726428     -1.801187    -3.502029
C     -0.059222     -3.138796    -3.492907
C      0.889911     -3.307199    -4.416525
H     -0.436961     -3.995041    -2.938783
H      1.283699     -4.299978    -4.617871
C      1.421557     -2.181344    -5.201665
C      1.089249     -0.921861    -4.914095
H      2.099654     -2.402232    -6.021099
H      1.494168     -0.097633    -5.496344
C      0.193170     -0.617261    -3.755271
C      0.830029     -0.533227    -2.338406
H     -0.429228      0.261702    -3.947604
H      1.668357     -1.241325    -2.327870
C     -0.130677     -1.956267    -0.479622
H     -1.024822     -2.024832     0.143173
H      0.215611     -2.978630    -0.663646
C      1.008009     -1.200652     0.282882
C      0.905404     -1.438608     1.767310
H      1.942533     -1.675219    -0.043364
H      0.993141     -2.472909     2.097157
C      0.716704     -0.490175     2.675778
C      0.615794      0.980488     2.350517
H      0.687165     -0.756365     3.729660
H      1.620612      1.399512     2.510529
C     -0.311840      1.769427     3.262208
C     -1.357158      1.172054     3.962349
C     -0.123269      3.145223     3.395218
C     -2.190845      1.929771     4.776018
H     -1.527699      0.106406     3.858752
C     -0.956934      3.907506     4.202796
H      0.690065      3.627666     2.858647
C     -1.995965      3.300058     4.898436
H     -3.001605      1.446062     5.312652
H     -0.793037      4.977254     4.290648
H     -2.650289      3.890741     5.531773
C      1.170036      0.703423    -1.535564
H      2.130369      1.137255    -1.831007
H      0.406228      1.470349    -1.700454
C      1.204787      0.315924    -0.017804
C      0.315592      1.230318     0.855555
H      2.219393      0.524831     0.343105
H      0.581266      2.264681     0.618931
C     -1.153608      1.155351     0.492186
O     -1.696050      1.904499    -0.281709
O     -1.827444      0.162073     1.102828
H     -2.747335      0.234370     0.808353
49
 -1042.11770984 -1041.74608500  5.79 4.78
C      2.655203     -0.401503     0.678679
C      3.730544     -0.987668     1.633617
H      2.547613      0.659158     0.944833
H      4.510163     -0.277797     1.931828
C      4.354920     -2.281121     1.197145
C      4.204000     -3.415819     1.884376
H      4.968342     -2.264702     0.299047
H      4.700200     -4.323851     1.551834
C      3.391186     -3.482476     3.109547
C      2.638672     -2.450594     3.495647
H      3.413946     -4.399807     3.690961
H      2.037439     -2.512703     4.399407
C      2.572444     -1.207620     2.666310
C      1.606063     -1.191919     1.446420
H      2.428290     -0.315554     3.282752
H      1.598857     -2.219355     1.056189
C      2.459779     -0.556211    -0.809988
H      3.184295      0.007631    -1.408982
H      2.550013     -1.611587    -1.091347
C      1.031587     -0.052854    -1.130820
C      0.927663      1.455467    -1.114454
H      0.801614     -0.380673    -2.154206
H      1.811093      2.055566    -0.915147
C     -0.249272      2.011037    -1.371964
C     -1.398579      1.083601    -1.677911
H     -0.390869      3.085253    -1.397814
H     -1.134226      0.555397    -2.603699
C     -2.743417      1.733150    -1.949967
C     -3.141860      2.924925    -1.347051
C     -3.626475      1.109621    -2.832348
C     -4.384853      3.479123    -1.625691
H     -2.487087      3.412143    -0.634868
C     -4.872663      1.656938    -3.109377
H     -3.331771      0.180322    -3.314227
C     -5.256042      2.848606    -2.506100
H     -4.676336      4.408896    -1.146018
H     -5.543168      1.152918    -3.798939
H     -6.227459      3.283612    -2.719040
C      0.231810     -0.589873     1.292978
H     -0.530882     -1.134904     1.859624
H      0.232746      0.448101     1.639557
C     -0.094830     -0.654183    -0.223679
C     -1.490416     -0.027540    -0.594154
H     -0.157768     -1.720822    -0.469272
H     -2.131627     -0.821741    -0.984155
C     -2.188201      0.507722     0.638750
O     -2.013274      1.586791     1.139717
O     -3.061447     -0.388070     1.154668
H     -3.455964      0.024969     1.937335
49
 -1042.11553861 -1041.74384300  7.15 6.19
C      0.064824     -2.721416    -0.460843
C     -0.280676     -3.940249    -1.359137
H     -0.732095     -2.655853     0.292813
H     -0.796581     -4.756029    -0.840482
C      0.851410     -4.488428    -2.178501
C      0.849473     -4.455487    -3.513263
H      1.681505     -4.946317    -1.645203
H      1.674109     -4.893113    -4.069839
C     -0.256382     -3.854670    -4.276301
C     -1.226355     -3.172440    -3.664843
H     -0.259659     -3.975234    -5.355885
H     -2.035601     -2.727694    -4.238784
C     -1.191845     -2.967438    -2.183617
C     -0.308122     -1.814784    -1.624789
H     -2.197880     -2.923200    -1.756380
H      0.558349     -1.749975    -2.297665
C      1.367811     -2.285328     0.165022
H      1.670864     -2.899371     1.021033
H      2.174076     -2.331180    -0.575787
C      1.171149     -0.821721     0.629189
C      0.321733     -0.719239     1.875645
H      2.165601     -0.426951     0.881167
H     -0.032291     -1.623786     2.362445
C      0.048489      0.482976     2.365423
C      0.634744      1.678601     1.658042
H     -0.527952      0.614684     3.273962
H      1.723353      1.599267     1.784882
C      0.266875      3.048075     2.203188
C     -0.908003      3.297239     2.909451
C      1.140752      4.113053     1.979192
C     -1.196855      4.570995     3.383588
H     -1.615942      2.494570     3.079193
C      0.854661      5.389146     2.445836
H      2.063356      3.939104     1.430870
C     -0.318453      5.622761     3.153469
H     -2.118692      4.742573     3.931580
H      1.550464      6.201304     2.257894
H     -0.547789      6.617591     3.522055
C     -0.679418     -0.428157    -1.160660
H     -0.968162      0.227749    -1.988999
H     -1.516293     -0.476304    -0.457457
C      0.587994      0.134877    -0.462532
C      0.412122      1.583721     0.118555
H      1.345102      0.212341    -1.251111
H      1.155383      2.227395    -0.356759
C     -0.904471      2.196327    -0.311512
O     -1.035695      2.930043    -1.257539
O     -1.951944      1.836876     0.461232
H     -2.727045      2.293100     0.102156
49
 -1042.11605899 -1041.74340700  6.82 6.46
C      1.758409     -0.623328    -1.324377
C      2.726690     -1.274288    -2.353330
H      1.594884     -1.378459    -0.547659
H      3.439301     -1.984641    -1.919199
C      3.446867     -0.323590    -3.264501
C      3.250098     -0.309723    -4.584873
H      4.172073      0.351192    -2.815512
H      3.816667      0.372989    -5.212676
C      2.289989     -1.213518    -5.239088
C      1.461363     -1.975149    -4.523006
H      2.268274     -1.240053    -6.324864
H      0.751015     -2.633538    -5.017204
C      1.460702     -1.901050    -3.028649
C      0.642508     -0.764741    -2.350822
H      1.219541     -2.868222    -2.577433
H      0.676298      0.095032    -3.031837
C      1.798991      0.752515    -0.683845
H      2.191212      0.708188     0.334559
H      2.435153      1.439979    -1.251060
C      0.350398      1.344905    -0.677070
C      0.207709      2.344452     0.440407
H      0.250265      1.898959    -1.619459
H      0.901971      3.183116     0.425956
C     -0.657939      2.248339     1.439862
C     -1.682795      1.136520     1.556593
H     -0.659880      3.015263     2.207113
H     -2.583199      1.489900     1.029472
C     -2.141795      0.874120     2.988556
C     -2.509514      1.957666     3.791158
C     -2.286510     -0.404584     3.523833
C     -2.967395      1.775616     5.087463
H     -2.448005      2.965864     3.393182
C     -2.743959     -0.592738     4.824939
H     -2.049763     -1.285363     2.938121
C     -3.080660      0.494188     5.616872
H     -3.240496      2.639260     5.686367
H     -2.837534     -1.601863     5.215176
H     -3.435817      0.347158     6.631798
C     -0.709559     -0.853408    -1.677514
H     -1.532736     -0.819245    -2.398160
H     -0.791273     -1.804955    -1.143731
C     -0.838207      0.337520    -0.666691
C     -1.222817     -0.101109     0.768684
H     -1.698182      0.934841    -0.992360
H     -2.054229     -0.807095     0.685244
C     -0.096897     -0.837723     1.471174
O      0.771999     -0.352829     2.142062
O     -0.177497     -2.179735     1.273173
H      0.564282     -2.576640     1.753165
49
 -1042.11537711 -1041.74318700  7.25 6.60
C      2.198247      0.398778    -1.623562
C      3.359849      1.279961    -2.158615
H      1.394266      0.458961    -2.370028
H      3.444242      1.307811    -3.250754
C      4.706850      1.025561    -1.546819
C      5.345308      1.942939    -0.816473
H      5.171503      0.061030    -1.738890
H      6.334200      1.730377    -0.418694
C      4.759162      3.264176    -0.539145
C      3.496488      3.542082    -0.868619
H      5.381174      4.009036    -0.050953
H      3.071615      4.519588    -0.653988
C      2.628938      2.497818    -1.496291
C      1.941828      1.458971    -0.563315
H      1.901723      2.935266    -2.186510
H      2.643973      1.290008     0.265314
C      2.199852     -0.981368    -1.012284
H      2.362863     -1.783971    -1.740927
H      2.991616     -1.055248    -0.258066
C      0.819999     -1.178614    -0.339031
C     -0.287856     -1.432994    -1.334304
H      0.902166     -2.069279     0.298826
H     -0.072733     -1.437343    -2.398897
C     -1.515827     -1.614660    -0.867978
C     -1.696973     -1.583360     0.633785
H     -2.372945     -1.750203    -1.516337
H     -1.079339     -2.395380     1.044337
C     -3.112882     -1.875538     1.111011
C     -3.684295     -1.257072     2.222292
C     -3.857619     -2.860162     0.458773
C     -4.966018     -1.589845     2.649023
H     -3.140357     -0.503897     2.781490
C     -5.135614     -3.196840     0.881936
H     -3.426091     -3.382286    -0.389698
C     -5.701154     -2.557129     1.979528
H     -5.387047     -1.086922     3.514656
H     -5.691418     -3.965048     0.352675
H     -6.701329     -2.816221     2.311830
C      0.529268      1.395597    -0.038503
H      0.324839      2.169862     0.707690
H     -0.183825      1.519206    -0.860572
C      0.374490     -0.008850     0.604739
C     -1.071038     -0.277449     1.174872
H      1.054859     -0.020550     1.464279
H     -0.989116     -0.347124     2.261775
C     -1.998179      0.887935     0.887433
O     -2.683696      1.025034    -0.089104
O     -1.985457      1.801500     1.889969
H     -2.598504      2.505859     1.632129
49
 -1042.11523356 -1041.74247600  7.34 7.05
C     -0.296023     -1.573712    -1.658178
C     -0.495894     -2.385022    -2.969758
H     -1.261414     -1.100569    -1.448156
H     -1.505135     -2.790909    -3.102237
C      0.522112     -3.454487    -3.239976
C      1.354637     -3.403461    -4.282371
H      0.546595     -4.307679    -2.565882
H      2.054935     -4.215366    -4.460195
C      1.348841     -2.276848    -5.229705
C      0.620070     -1.183996    -4.997372
H      1.961014     -2.355079    -6.123698
H      0.629636     -0.354656    -5.700526
C     -0.184456     -1.059133    -3.742104
C      0.539954     -0.578181    -2.451927
H     -1.099274     -0.481880    -3.905619
H      1.570966     -0.948835    -2.515153
C      0.362054     -1.982433    -0.351821
H     -0.379468     -2.232898     0.410723
H      0.998942     -2.863870    -0.480431
C      1.271926     -0.809756     0.143256
C      1.441615     -0.880253     1.638167
H      2.258971     -0.994822    -0.299697
H      1.869119     -1.801316     2.031680
C      1.078887      0.069198     2.490231
C      0.492360      1.401309     2.063266
H      1.234034     -0.093376     3.551840
H      1.348674      2.082839     1.935805
C     -0.377010      2.063086     3.129706
C     -1.596308      2.677501     2.847683
C      0.096245      2.132997     4.443167
C     -2.333268      3.305158     3.848028
H     -1.998143      2.686530     1.841055
C     -0.634544      2.757795     5.442755
H      1.061072      1.701522     4.690938
C     -1.861901      3.343638     5.151254
H     -3.282835      3.768805     3.597763
H     -0.241212      2.790443     6.454373
H     -2.437807      3.831726     5.930987
C      0.507930      0.791235    -1.809283
H      1.194667      1.492744    -2.293234
H     -0.498916      1.211403    -1.893534
C      0.888227      0.634236    -0.297403
C     -0.132225      1.297199     0.660937
H      1.805960      1.212869    -0.138156
H     -0.322120      2.304335     0.278918
C     -1.490799      0.622488     0.604993
O     -2.338476      0.892988    -0.211127
O     -1.695391     -0.306844     1.553651
H     -2.596825     -0.636659     1.426365
49
 -1042.11430047 -1041.74186400  7.93 7.43
C      0.647877     -0.927747    -2.510159
C      1.315290     -0.760686    -3.902576
H     -0.415298     -0.685495    -2.645178
H      0.663930     -0.999004    -4.750865
C      2.646059     -1.434032    -4.073059
C      3.772419     -0.748760    -4.283647
H      2.666020     -2.521188    -4.044746
H      4.710507     -1.276440    -4.434819
C      3.791050      0.721830    -4.339119
C      2.711873      1.438377    -4.019604
H      4.711975      1.212103    -4.641718
H      2.738235      2.524598    -4.058496
C      1.461315      0.760910    -3.556797
C      1.369356      0.334719    -2.062957
H      0.565793      1.313775    -3.855139
H      2.391087      0.056979    -1.768159
C      0.776281     -2.015777    -1.471528
H      0.255832     -2.942480    -1.739796
H      1.832619     -2.263540    -1.317286
C      0.176025     -1.456010    -0.158898
C     -1.333363     -1.399611    -0.185321
H      0.467391     -2.144990     0.645862
H     -1.874866     -1.720869    -1.070377
C     -1.960885     -0.923436     0.881237
C     -1.111178     -0.508631     2.062224
H     -3.037370     -0.808038     0.919165
H     -0.578731     -1.412779     2.392553
C     -1.893853     -0.043098     3.282800
C     -1.434545      0.953244     4.144084
C     -3.087035     -0.690402     3.611322
C     -2.158527      1.310636     5.277193
H     -0.500386      1.468506     3.951710
C     -3.811196     -0.337238     4.741320
H     -3.451797     -1.494521     2.979793
C     -3.352419      0.672558     5.579854
H     -1.778870      2.093500     5.927107
H     -4.737425     -0.856172     4.969276
H     -3.917334      0.952372     6.463324
C      0.681008      0.994354    -0.894050
H      1.181637      1.914239    -0.577106
H     -0.352966      1.242845    -1.157978
C      0.712997     -0.044514     0.259362
C      0.001220      0.452368     1.575533
H      1.771688     -0.170486     0.512228
H      0.765098      0.518518     2.352826
C     -0.484424      1.881026     1.422974
O      0.182492      2.851875     1.680806
O     -1.747400      1.985121     0.965189
H     -1.947208      2.931493     0.921638
