49
 -1042.12820708 -1041.75665600  0.00 0.00
C     -0.029464     -0.409391    -2.396219
C      0.489090     -0.349569    -3.861500
H      0.796567     -0.809669    -1.796093
H     -0.348110     -0.246166    -4.558654
C      1.455986     -1.398820    -4.310497
C      2.759106     -1.275931    -4.052916
H      1.073598     -2.281938    -4.816198
H      3.457652     -2.053609    -4.348630
C      3.288938     -0.091676    -3.357942
C      2.526815      0.971390    -3.091440
H      4.337313     -0.094814    -3.071395
H      2.954988      1.834710    -2.586832
C      1.085462      1.053451    -3.501731
C      0.047860      1.112147    -2.345211
H      0.963060      1.833858    -4.261258
H     -0.875467      1.517009    -2.779376
C     -1.353714     -0.929830    -1.859715
H     -1.257918     -1.948413    -1.467524
H     -2.123337     -0.955622    -2.640014
C     -1.803842      0.039422    -0.725400
C     -2.775751     -0.625732     0.211734
H     -2.344630      0.867431    -1.208892
H     -3.532430     -1.261016    -0.246381
C     -2.767099     -0.485367     1.530640
C     -1.782099      0.379199     2.273316
H     -3.490226     -1.024961     2.137864
H     -2.345618      0.992392     2.985649
C     -0.807692     -0.461619     3.090603
C     -0.418901     -0.034428     4.358742
C     -0.282067     -1.657418     2.602762
C      0.480151     -0.772206     5.118715
H     -0.826560      0.889797     4.759460
C      0.615570     -2.399745     3.359486
H     -0.590099     -2.019422     1.627260
C      1.002652     -1.958589     4.619710
H      0.768815     -0.419840     6.104246
H      1.013224     -3.329029     2.963000
H      1.704455     -2.539143     5.210156
C      0.203527      1.624301    -0.921409
H     -0.172346      2.650556    -0.824710
H      1.248079      1.633453    -0.605624
C     -0.594711      0.665979     0.014336
C     -1.083334      1.358133     1.288116
H      0.078727     -0.143893     0.312596
H     -1.832354      2.112096     1.015326
C      0.030274      2.086466     2.012934
O      1.208430      1.867718     1.920182
O     -0.457922      3.045019     2.837228
H      0.305351      3.443328     3.281501
49
 -1042.12713044 -1041.75534800  0.68 0.82
C     -0.305531     -1.296316    -2.030497
C     -0.038951     -1.722516    -3.502384
H      0.669883     -1.303390    -1.528849
H     -0.972420     -2.024732    -3.987118
C      1.062004     -2.700724    -3.764276
C      2.327013     -2.288766    -3.862640
H      0.817905     -3.757763    -3.834250
H      3.131090     -3.002377    -4.018828
C      2.673005     -0.862108    -3.757856
C      1.738968      0.090534    -3.712569
H      3.725688     -0.593189    -3.730745
H      2.031478      1.136326    -3.648456
C      0.271508     -0.214696    -3.792341
C     -0.566777      0.121063    -2.526877
H     -0.137583      0.186220    -4.726606
H     -1.612264      0.184032    -2.854793
C     -1.382584     -1.769023    -1.067111
H     -1.001484     -2.530564    -0.377780
H     -2.233426     -2.211480    -1.598225
C     -1.869263     -0.522028    -0.269526
C     -2.514650     -0.920704     1.031052
H     -2.648975     -0.037600    -0.876841
H     -3.152914     -1.802615     1.003477
C     -2.358135     -0.275386     2.179273
C     -1.519650      0.965895     2.331939
H     -2.840054     -0.647748     3.080293
H     -2.116469      1.712181     2.869272
C     -0.279121      0.704376     3.178359
C      0.167812      1.677093     4.071316
C      0.435722     -0.488862     3.082223
C      1.304138      1.470099     4.843307
H     -0.379000      2.611808     4.161607
C      1.571945     -0.700247     3.853141
H      0.091784     -1.266206     2.407582
C      2.011794      0.279378     4.735615
H      1.634547      2.241271     5.532493
H      2.115172     -1.636235     3.765171
H      2.899472      0.113566     5.337863
C     -0.315114      1.153696    -1.439243
H     -0.879356      2.076487    -1.622307
H      0.741298      1.425167    -1.389619
C     -0.740859      0.523492    -0.076570
C     -1.206258      1.573791     0.936506
H      0.127910      0.005535     0.342301
H     -2.141425      2.015638     0.574220
C     -0.269567      2.749602     1.128929
O     -0.631097      3.850080     1.462671
O      1.032313      2.452188     0.939174
H      1.530480      3.255760     1.148519
49
 -1042.11643581 -1041.74649800  7.39 6.37
C      0.531996     -0.984322    -2.649567
C      0.944216     -0.831140    -4.141697
H      1.404128     -1.405986    -2.135434
H      0.058576     -0.702343    -4.771429
C      1.890774     -1.835970    -4.717628
C      3.207095     -1.706635    -4.543348
H      1.485263     -2.694365    -5.247260
H      3.893147     -2.454018    -4.931800
C      3.768873     -0.555656    -3.818556
C      3.014032      0.477710    -3.438637
H      4.834736     -0.557340    -3.606150
H      3.465889      1.318218    -2.916389
C      1.546425      0.559079    -3.742963
C      0.593214      0.531997    -2.515960
H      1.360434      1.379892    -4.444769
H     -0.365426      0.943257    -2.857918
C     -0.745831     -1.555937    -2.055433
H     -0.610768     -2.599118    -1.748924
H     -1.567279     -1.537719    -2.780713
C     -1.131774     -0.686189    -0.823258
C     -1.951932     -1.451960     0.183058
H     -1.751763      0.145687    -1.190993
H     -2.368361     -2.414236    -0.104512
C     -2.178122     -0.944730     1.387035
C     -1.623831      0.419436     1.715937
H     -2.781158     -1.464795     2.123303
H     -2.169442      1.144783     1.097227
C     -1.810519      0.851375     3.158151
C     -2.133779      2.175723     3.448381
C     -1.645144     -0.040602     4.218361
C     -2.289428      2.603677     4.761124
H     -2.269596      2.882895     2.633967
C     -1.799410      0.383381     5.531803
H     -1.382729     -1.074425     4.017460
C     -2.122286      1.707015     5.809085
H     -2.542853      3.639709     4.964630
H     -1.665052     -0.324567     6.344243
H     -2.242504      2.036479     6.836255
C      0.831302      0.967465    -1.078693
H      0.434979      1.973264    -0.900515
H      1.898808      0.993196    -0.834607
C      0.128417     -0.065950    -0.151232
C     -0.136139      0.531291     1.258595
H      0.814554     -0.907192    -0.015131
H      0.122222      1.593037     1.267242
C      0.765604     -0.139551     2.276805
O      0.893879     -1.327052     2.426861
O      1.435001      0.756088     3.034922
H      1.961559      0.247146     3.669072
49
 -1042.11395954 -1041.74326600  8.94 8.40
C      0.506634     -0.865756    -2.651769
C      0.851546     -0.603251    -4.145758
H      1.399116     -1.327817    -2.212435
H     -0.060813     -0.422778    -4.722414
C      1.761919     -1.567355    -4.837842
C      3.085881     -1.459125    -4.714111
H      1.325188     -2.380975    -5.411457
H      3.746982     -2.179107    -5.188152
C      3.690090     -0.369333    -3.931241
C      2.962587      0.637160    -3.441606
H      4.764257     -0.393499    -3.767641
H      3.444990      1.433443    -2.878953
C      1.483675      0.749826    -3.672655
C      0.585739      0.637467    -2.409432
H      1.274080      1.621647    -4.302615
H     -0.383391      1.076850    -2.678652
C     -0.745915     -1.478694    -2.042111
H     -0.600438     -2.540821    -1.815733
H     -1.599793     -1.409457    -2.725553
C     -1.068046     -0.694025    -0.738821
C     -1.858769     -1.499008     0.261118
H     -1.679722      0.174517    -1.025405
H     -2.247652     -2.472004    -0.027971
C     -2.049390     -1.014987     1.481205
C     -1.460015      0.341338     1.803849
H     -2.573479     -1.569797     2.250408
H     -1.943962      1.067352     1.132218
C     -1.748811      0.830201     3.214824
C     -3.054761      0.721778     3.697997
C     -0.798098      1.432471     4.034440
C     -3.395895      1.178692     4.962290
H     -3.818309      0.275898     3.066847
C     -1.134499      1.891962     5.304148
H      0.227613      1.552713     3.702023
C     -2.432405      1.764961     5.776745
H     -4.418804      1.078822     5.312842
H     -0.371402      2.352787     5.924359
H     -2.694278      2.122587     6.767415
C      0.888910      0.968835    -0.955653
H      0.491740      1.953531    -0.684029
H      1.964381      0.986497    -0.752551
C      0.231868     -0.136947    -0.082307
C      0.020666      0.331379     1.393415
H      0.929615     -0.981428    -0.058125
H      0.435746      1.338185     1.492294
C      0.839824     -0.561756     2.301403
O      0.434085     -1.437089     3.015961
O      2.160742     -0.268400     2.200851
H      2.630771     -0.887489     2.778346
49
 -1042.11227280 -1041.74163400  10.00 9.43
C      0.741053     -1.444852    -2.348276
C      1.246513     -1.572736    -3.813932
H      1.564996     -1.789717    -1.711689
H      0.404865     -1.537541    -4.512436
C      2.188809     -2.688008    -4.138748
C      3.496141     -2.562085    -3.904445
H      1.784960     -3.617282    -4.532587
H      4.176803     -3.383924    -4.107960
C      4.054659     -1.313865    -3.360747
C      3.316285     -0.210518    -3.221285
H      5.105007     -1.303891    -3.081737
H      3.765937      0.698770    -2.828433
C      1.873501     -0.148896    -3.630801
C      0.848903      0.069097    -2.483126
H      1.759301      0.536669    -4.478001
H     -0.072658      0.434708    -2.954482
C     -0.589906     -1.869182    -1.747933
H     -0.513846     -2.848630    -1.262987
H     -1.366664     -1.950891    -2.516625
C     -1.011792     -0.791152    -0.706262
C     -1.884583     -1.355224     0.386047
H     -1.591176     -0.024182    -1.241703
H     -2.260326     -2.370898     0.291083
C     -2.159464     -0.621672     1.455483
C     -1.609102      0.785575     1.520773
H     -2.745609     -1.007253     2.281353
H     -2.076906      1.340439     0.692324
C     -1.985423      1.547957     2.783552
C     -3.302486      1.465665     3.243293
C     -1.103428      2.375953     3.475265
C     -3.718830      2.162753     4.367644
H     -4.015980      0.849566     2.703988
C     -1.517633      3.077167     4.604384
H     -0.076747      2.496975     3.147870
C     -2.823247      2.971210     5.059850
H     -4.747880      2.076712     4.703614
H     -0.808389      3.712074     5.127077
H     -3.144162      3.517145     5.941292
C      1.015583      0.754164    -1.135908
H      0.631854      1.779771    -1.167295
H      2.063972      0.811255    -0.827096
C      0.230044     -0.082722    -0.085563
C     -0.104895      0.768490     1.183404
H      0.890879     -0.896608     0.235580
H      0.224016      1.793628     1.000459
C      0.788066      0.282634     2.305904
O      1.912544      0.680570     2.484897
O      0.238793     -0.676136     3.074502
H      0.907645     -0.921086     3.730419
