49
 -1042.13188560 -1041.75965600  0.00 0.00
C      0.769181      0.304378    -2.503115
C      1.199380     -0.561175    -3.721391
H      0.009138      0.998021    -2.888898
H      2.132680     -1.090886    -3.508705
C      1.219734      0.085379    -5.070063
C      0.095773      0.211975    -5.777650
H      2.158265      0.483000    -5.447952
H      0.102421      0.711740    -6.742240
C     -1.184295     -0.311467    -5.273859
C     -1.255105     -1.068843    -4.176843
H     -2.087217     -0.073739    -5.830162
H     -2.216551     -1.446525    -3.835472
C     -0.038215     -1.466224    -3.393098
C      0.048069     -0.914557    -1.944292
H      0.122086     -2.546868    -3.477964
H      0.788572     -1.541733    -1.426675
C      1.573960      1.016037    -1.439354
H      2.082675      1.912033    -1.812812
H      2.337469      0.352919    -1.012079
C      0.543864      1.409258    -0.353347
C      1.169074      2.199994     0.766023
H     -0.175189      2.080101    -0.853171
H      1.994629      2.857779     0.499418
C      0.754784      2.161126     2.025738
C     -0.387478      1.305557     2.509530
H      1.259945      2.758700     2.781232
H     -1.074953      1.951836     3.067609
C      0.097945      0.237985     3.486196
C     -0.663725     -0.068859     4.612356
C      1.292641     -0.451312     3.284352
C     -0.252545     -1.046244     5.509726
H     -1.592951      0.465478     4.791331
C      1.709445     -1.427429     4.180399
H      1.913140     -0.209682     2.427552
C      0.936688     -1.731551     5.295004
H     -0.862010     -1.269427     6.380038
H      2.644232     -1.952006     4.007577
H      1.262819     -2.495204     5.994027
C     -1.023889     -0.541386    -0.943149
H     -1.541237     -1.412245    -0.537024
H     -1.770570      0.119204    -1.404087
C     -0.276270      0.207531     0.188960
C     -1.190693      0.729990     1.303274
H      0.419775     -0.512359     0.636093
H     -1.791061      1.555683     0.902764
C     -2.165470     -0.307772     1.822126
O     -2.032883     -1.502074     1.788961
O     -3.249775      0.275727     2.387822
H     -3.806309     -0.441868     2.725292
49
 -1042.13052185 -1041.75791600  0.86 1.09
C     -0.023926      1.768241    -1.943068
C      0.283044      1.837328    -3.465957
H     -1.002420      2.252683    -1.818780
H      1.339642      1.627744    -3.657230
C     -0.194847      3.034465    -4.224917
C     -1.456837      3.106446    -4.651817
H      0.492635      3.860036    -4.390771
H     -1.815131      3.989638    -5.173181
C     -2.401777      2.000998    -4.425107
C     -2.007833      0.824553    -3.932275
H     -3.445429      2.160914    -4.682872
H     -2.730641      0.024979    -3.784543
C     -0.573758      0.530690    -3.599951
C     -0.261424      0.272627    -2.101389
H     -0.182186     -0.231342    -4.283147
H      0.714907     -0.233129    -2.078966
C      0.822275      2.077211    -0.728816
H      0.983452      3.150873    -0.579778
H      1.807856      1.599053    -0.801249
C      0.034740      1.492664     0.468546
C      0.704040      1.780141     1.787100
H     -0.931073      2.025071     0.480331
H      1.243386      2.722518     1.866538
C      0.643787      0.978797     2.842567
C     -0.087526     -0.338310     2.858043
H      1.156660      1.253944     3.761405
H     -0.758344     -0.339937     3.725344
C      0.878700     -1.503241     3.054603
C      2.126962     -1.530631     2.434689
C      0.516730     -2.574554     3.869961
C      2.988108     -2.604569     2.620236
H      2.435290     -0.696182     1.813115
C      1.374507     -3.651369     4.056519
H     -0.451584     -2.568379     4.363089
C      2.614479     -3.670529     3.430199
H      3.957263     -2.607735     2.130760
H      1.072889     -4.475879     4.695276
H      3.288123     -4.509330     3.574359
C     -1.104129     -0.295111    -0.979055
H     -1.288059     -1.365246    -1.093986
H     -2.076148      0.213189    -0.931215
C     -0.295955     -0.016590     0.314522
C     -0.996633     -0.477674     1.599563
H      0.648996     -0.566170     0.225866
H     -1.866268      0.166426     1.769481
C     -1.556892     -1.885769     1.580273
O     -2.530837     -2.229626     2.201566
O     -0.838333     -2.756090     0.841745
H     -1.250482     -3.623834     0.962378
49
 -1042.12524632 -1041.75299800  4.17 4.18
C      0.150310      1.342889    -2.223933
C      0.148001      1.072126    -3.755241
H     -0.576239      2.152289    -2.067581
H      1.021822      0.480563    -4.044098
C     -0.068141      2.233643    -4.672690
C     -1.300882      2.677579    -4.924270
H      0.797408      2.732249    -5.101459
H     -1.458032      3.542195    -5.562970
C     -2.481321      2.018551    -4.342414
C     -2.390268      0.865822    -3.675391
H     -3.449695      2.492456    -4.479742
H     -3.284005      0.399984    -3.265789
C     -1.087472      0.142916    -3.492730
C     -0.578127      0.018683    -2.031614
H     -1.104004     -0.801072    -4.048799
H      0.169638     -0.787790    -2.038609
C      1.281103      1.514384    -1.234343
H      1.804554      2.470984    -1.342033
H      2.024571      0.713661    -1.340975
C      0.609515      1.435341     0.157025
C      1.586258      1.641669     1.286159
H     -0.103756      2.275186     0.195082
H      2.414436      2.322471     1.097709
C      1.474291      1.076002     2.481688
C      0.361166      0.133509     2.869384
H      2.222384      1.274706     3.245753
H     -0.076326      0.496988     3.806585
C      0.902901     -1.264142     3.157607
C      0.383975     -2.001816     4.221222
C      1.900163     -1.843002     2.370226
C      0.836267     -3.287252     4.486913
H     -0.396496     -1.567461     4.840090
C      2.355517     -3.130158     2.634023
H      2.338655     -1.274853     1.556009
C      1.823224     -3.857391     3.691560
H      0.415520     -3.845027     5.317679
H      3.131986     -3.564102     2.011604
H      2.178847     -4.862015     3.896844
C     -1.314355     -0.042139    -0.710292
H     -1.843898     -0.988395    -0.565117
H     -2.054025      0.764268    -0.633043
C     -0.220387      0.143423     0.370283
C     -0.771223      0.172758     1.805446
H      0.471897     -0.705537     0.272608
H     -1.296345      1.123131     1.940270
C     -1.843869     -0.879649     2.071312
O     -2.912759     -0.614429     2.546733
O     -1.564086     -2.156890     1.722618
H     -0.628696     -2.257304     1.500703
49
 -1042.11927096 -1041.74813200  7.92 7.23
C     -0.247449      1.745617     2.262454
C     -0.805698      2.952864     3.067829
H     -0.800299      0.867644     2.624680
H     -0.139484      3.816320     2.980520
C     -1.229935      2.717088     4.482667
C     -2.432086      2.205632     4.753400
H     -0.528698      2.934962     5.284207
H     -2.728583      2.001507     5.778397
C     -3.387768      1.896494     3.677661
C     -3.166385      2.255386     2.411057
H     -4.301145      1.370258     3.942270
H     -3.897754      2.019167     1.641091
C     -1.945203      3.021809     1.993313
C     -0.974039      2.281721     1.034565
H     -2.231493      4.026452     1.662523
H     -0.345345      3.058707     0.576080
C      1.170363      1.325535     1.944464
H      1.706979      0.931138     2.814601
H      1.748094      2.173150     1.552510
C      1.042294      0.226477     0.868131
C      2.367037     -0.281590     0.355233
H      0.510707     -0.611864     1.345153
H      3.289591      0.119535     0.766646
C      2.369000     -1.171157    -0.629119
C      1.026875     -1.657920    -1.132550
H      3.281930     -1.531355    -1.087756
H      0.531756     -2.145161    -0.279337
C      1.099138     -2.722745    -2.217514
C      0.200870     -2.787486    -3.281249
C      2.060069     -3.730257    -2.113627
C      0.277843     -3.806525    -4.225074
H     -0.579595     -2.042843    -3.395990
C      2.139851     -4.750070    -3.051406
H      2.753021     -3.723548    -1.277636
C      1.249695     -4.790871    -4.118902
H     -0.431812     -3.827062    -5.046874
H      2.899798     -5.518530    -2.945839
H      1.310428     -5.585773    -4.855316
C     -1.209767      1.200954     0.003273
H     -1.713087      1.563548    -0.899029
H     -1.818401      0.390753     0.424351
C      0.197563      0.675902    -0.362136
C      0.147570     -0.435051    -1.463180
H      0.747279      1.528355    -0.785538
H     -0.891606     -0.755555    -1.576757
C      0.570337      0.206647    -2.767121
O      1.668799      0.180521    -3.251203
O     -0.455273      0.885065    -3.339726
H     -0.105983      1.296154    -4.144200
49
 -1042.11866087 -1041.74740000  8.30 7.69
C      1.799437      1.937092     1.159152
C      2.821708      2.487173     2.193625
H      2.393479      1.639171     0.283882
H      2.310494      3.057172     2.975170
C      4.025955      3.207730     1.675960
C      5.091404      2.527357     1.249491
H      4.003992      4.293058     1.618867
H      5.953233      3.047689     0.841214
C      5.130833      1.057407     1.311500
C      4.185055      0.350797     1.934573
H      5.968290      0.549143     0.840844
H      4.248785     -0.734671     1.969467
C      3.029261      0.998885     2.639678
C      1.624086      0.709678     2.045799
H      3.109380      0.829019     3.719182
H      0.899621      0.955738     2.835467
C      0.473603      2.484567     0.681602
H      0.578060      3.366631     0.040017
H     -0.157935      2.766337     1.534666
C     -0.190864      1.338363    -0.111709
C     -1.592417      1.661439    -0.567048
H      0.438056      1.166444    -0.999341
H     -2.010159      2.641779    -0.352378
C     -2.308383      0.716796    -1.162661
C     -1.639769     -0.614246    -1.432221
H     -3.341720      0.871522    -1.448505
H     -0.808324     -0.400488    -2.120836
C     -2.503740     -1.635084    -2.161470
C     -3.390636     -1.201596    -3.149474
C     -2.390542     -3.008667    -1.945797
C     -4.160249     -2.102164    -3.872728
H     -3.473985     -0.141985    -3.369291
C     -3.161146     -3.914081    -2.668136
H     -1.693875     -3.401174    -1.213831
C     -4.054248     -3.467085    -3.630888
H     -4.844127     -1.734847    -4.632047
H     -3.055151     -4.977393    -2.474619
H     -4.656103     -4.173477    -4.193662
C      1.090148     -0.470629     1.266421
H      0.934391     -1.365788     1.877948
H      1.777425     -0.736843     0.453744
C     -0.262286      0.001115     0.684723
C     -0.952385     -1.128530    -0.143596
H     -0.911536      0.222187     1.543613
H     -0.190914     -1.861093    -0.421416
C     -1.876271     -1.859581     0.806185
O     -1.551099     -2.805637     1.479298
O     -3.106891     -1.315461     0.879334
H     -3.601942     -1.833768     1.530232
49
 -1042.11679469 -1041.74559200  9.47 8.83
C     -0.859175      2.648616     0.694305
C     -0.895862      4.198793     0.578861
H     -1.775631      2.294051     0.202250
H     -0.178064      4.654048     1.267708
C     -2.228842      4.875191     0.634876
C     -2.996536      4.950434    -0.453688
H     -2.576694      5.271622     1.585380
H     -3.979466      5.410691    -0.406936
C     -2.542069      4.409401    -1.744806
C     -1.295610      3.967576    -1.926718
H     -3.252234      4.387637    -2.567229
H     -0.989178      3.582242    -2.896828
C     -0.259137      4.013856    -0.841839
C      0.260528      2.639757    -0.340414
H      0.529078      4.726193    -1.109887
H      1.208905      2.841761     0.178189
C     -0.558408      1.739769     1.865554
H     -1.356049      1.729028     2.616792
H      0.369541      2.044456     2.367192
C     -0.394458      0.330996     1.255563
C     -0.051200     -0.732574     2.269708
H     -1.372156      0.066626     0.821992
H     -0.050084     -0.478475     3.327001
C      0.205343     -1.971128     1.854360
C      0.113611     -2.257532     0.371861
H      0.402938     -2.780449     2.550376
H     -0.946270     -2.145272     0.107428
C      0.510334     -3.656728    -0.061960
C      1.550393     -4.361720     0.540353
C     -0.168463     -4.254236    -1.123434
C      1.899315     -5.631642     0.097722
H      2.109285     -3.921078     1.358883
C      0.177375     -5.522557    -1.570689
H     -0.982514     -3.719296    -1.605920
C      1.214583     -6.217242    -0.959527
H      2.712776     -6.163911     0.581373
H     -0.364692     -5.969378    -2.398492
H      1.488214     -7.208647    -1.306264
C      0.378005      1.297936    -1.028721
H      1.190091      1.252115    -1.762853
H     -0.554736      1.042893    -1.546455
C      0.652276      0.282946     0.104578
C      0.854596     -1.157500    -0.450318
H      1.598156      0.602458     0.563505
H      0.482453     -1.206806    -1.475544
C      2.348703     -1.434890    -0.566266
O      2.930815     -1.557468    -1.606215
O      3.026460     -1.503244     0.605526
H      2.413755     -1.409323     1.349667
