49
 -1042.13019886 -1041.75798700  0.00 0.00
C      1.354475     -1.062844     1.667559
C      2.505106     -0.598174     2.604872
H      1.741859     -0.969192     0.644431
H      2.316496     -0.912968     3.635641
C      3.912727     -0.885211     2.186800
C      4.534992     -0.089784     1.315007
H      4.407908     -1.770164     2.578797
H      5.544445     -0.314772     0.982607
C      3.874549      1.107241     0.770139
C      2.701697      1.541766     1.237552
H      4.377556      1.648953    -0.026597
H      2.243396      2.434059     0.816964
C      1.983260      0.859954     2.365244
C      0.612775      0.225460     2.002070
H      1.962985      1.512796     3.245049
H      0.072689      0.082017     2.949736
C      0.443329     -2.264266     1.736640
H      0.948848     -3.206643     1.497286
H      0.019452     -2.364836     2.743497
C     -0.697531     -2.008162     0.716957
C     -0.225502     -2.218656    -0.702998
H     -1.475016     -2.761742     0.908951
H      0.543213     -2.973678    -0.858834
C     -0.718968     -1.576450    -1.754186
C     -1.822394     -0.552376    -1.689676
H     -0.342257     -1.810008    -2.747845
H     -2.627370     -0.929256    -2.332209
C     -1.434398      0.804189    -2.271938
C     -0.120765      1.146451    -2.580075
C     -2.437909      1.739715    -2.533120
C      0.184777      2.392444    -3.118443
H      0.675760      0.432283    -2.398674
C     -2.138259      2.984517    -3.067821
H     -3.473222      1.486749    -2.318433
C     -0.820369      3.318130    -3.361044
H      1.217282      2.637855    -3.347695
H     -2.936453      3.694907    -3.260571
H     -0.580360      4.290189    -3.779713
C     -0.382297      0.575860     0.921312
H     -0.939394      1.497994     1.123593
H      0.130510      0.704949    -0.033307
C     -1.369394     -0.614744     0.859158
C     -2.413409     -0.431876    -0.266417
H     -1.914862     -0.610184     1.810701
H     -2.863037      0.558615    -0.140992
C     -3.542831     -1.426487    -0.074072
O     -3.798797     -2.368309    -0.777551
O     -4.272586     -1.139947     1.029299
H     -4.962701     -1.816368     1.092347
49
 -1042.12967849 -1041.75752600  0.33 0.29
C      1.711098     -0.915815     1.516449
C      2.666865     -0.322035     2.590173
H      2.011163     -0.463725     0.561760
H      2.629328     -0.911195     3.511359
C      4.074446     -0.014616     2.186713
C      4.363470      1.122697     1.552057
H      4.851643     -0.747526     2.388836
H      5.378338      1.333044     1.226634
C      3.320557      2.120490     1.264297
C      2.085549      2.014954     1.760618
H      3.585266      2.968780     0.638539
H      1.339616      2.773252     1.533313
C      1.675931      0.889658     2.665253
C      0.589622     -0.065805     2.099619
H      1.464606      1.274906     3.669023
H      0.160515     -0.597670     2.961723
C      1.258465     -2.333447     1.266287
H      2.043288     -2.972252     0.845486
H      0.924369     -2.797862     2.202393
C      0.066682     -2.250008     0.276625
C      0.541772     -1.966853    -1.127421
H     -0.412398     -3.235582     0.262777
H      1.515573     -2.365703    -1.407807
C     -0.165101     -1.307614    -2.037182
C     -1.547942     -0.754415    -1.811350
H      0.242092     -1.171609    -3.037104
H     -2.197628     -1.232342    -2.553840
C     -1.666825      0.739745    -2.096805
C     -0.563406      1.576567    -2.229283
C     -2.941128      1.289722    -2.250964
C     -0.727699      2.932603    -2.495059
H      0.436225      1.167282    -2.125760
C     -3.109287      2.641729    -2.513439
H     -3.811046      0.642937    -2.166356
C     -1.999236      3.471155    -2.634508
H      0.146488      3.569023    -2.592370
H     -4.109231      3.048883    -2.628705
H     -2.125561      4.529215    -2.840511
C     -0.500154      0.170110     1.081380
H     -1.328096      0.777627     1.465362
H     -0.093121      0.685475     0.208680
C     -1.031973     -1.232439     0.691445
C     -2.105294     -1.122614    -0.401786
H     -1.524181     -1.642356     1.581895
H     -2.805218     -0.329748    -0.112633
C     -2.968358     -2.368591    -0.470874
O     -2.820714     -3.388430     0.150286
O     -4.010043     -2.203132    -1.322449
H     -4.519330     -3.026473    -1.302776
49
 -1042.12770465 -1041.75644100  1.57 0.97
C      2.123261     -0.874008    -0.127352
C      3.598163     -1.072881     0.326027
H      1.748228     -0.011884     0.437448
H      4.132238     -1.712755    -0.383018
C      4.396776      0.141197     0.682448
C      4.299940      0.682905     1.897598
H      5.030119      0.594591    -0.076119
H      4.852580      1.583944     2.148055
C      3.439951      0.084965     2.931688
C      2.846217     -1.098428     2.759935
H      3.308438      0.629923     3.862767
H      2.226275     -1.516089     3.549992
C      3.027571     -1.917012     1.515024
C      1.750942     -2.127980     0.652255
H      3.572698     -2.837539     1.751739
H      1.932948     -3.008207     0.021962
C      1.539341     -0.869668    -1.528652
H      1.367711      0.150027    -1.888284
H      2.213592     -1.349595    -2.247528
C      0.195703     -1.670610    -1.504736
C     -0.703397     -1.209451    -2.622390
H      0.448163     -2.721072    -1.695464
H     -0.416591     -1.486007    -3.635312
C     -1.790883     -0.471918    -2.436338
C     -2.289720     -0.033307    -1.082053
H     -2.392113     -0.170581    -3.291120
H     -3.140024     -0.676130    -0.819014
C     -2.784603      1.402822    -1.076572
C     -2.072711      2.407223    -1.731979
C     -3.941660      1.748043    -0.381055
C     -2.509027      3.725095    -1.696358
H     -1.171974      2.151087    -2.282778
C     -4.379745      3.066553    -0.341301
H     -4.502813      0.976376     0.138586
C     -3.664764      4.059656    -0.999363
H     -1.944619      4.494599    -2.214356
H     -5.283935      3.317466     0.204995
H     -4.005808      5.089709    -0.970597
C      0.296818     -2.085983     1.074224
H     -0.059498     -3.051596     1.444575
H      0.184137     -1.372644     1.896265
C     -0.566048     -1.634642    -0.153842
C     -1.214507     -0.246038     0.008193
H     -1.396229     -2.343019    -0.251806
H     -0.457999      0.539236    -0.072947
C     -1.879195     -0.130729     1.362759
O     -2.792800     -0.819680     1.740441
O     -1.340220      0.837365     2.133836
H     -1.830924      0.836666     2.969524
49
 -1042.12553342 -1041.75510100  2.93 1.81
C      0.690919      2.701623    -0.212951
C      0.378369      4.193483     0.095132
H     -0.014014      2.408782    -1.001805
H      1.191934      4.650067     0.666704
C     -0.064184      5.067966    -1.035341
C     -1.336210      5.061271    -1.437570
H      0.673510      5.683010    -1.544699
H     -1.653762      5.668321    -2.280600
C     -2.344219      4.228397    -0.762127
C     -2.077115      3.575595     0.371608
H     -3.334166      4.165417    -1.206258
H     -2.846876      2.973517     0.849172
C     -0.742432      3.661048     1.052959
C      0.062196      2.334794     1.124773
H     -0.843216      4.183505     2.010797
H      0.817404      2.472019     1.912831
C      2.002406      1.983614    -0.429704
H      2.473158      2.222085    -1.390167
H      2.715837      2.244244     0.361556
C      1.684917      0.469709    -0.369805
C      0.943421     -0.002682    -1.598706
H      2.638972     -0.074565    -0.328513
H      0.821454      0.674167    -2.439907
C      0.478336     -1.243920    -1.646616
C      0.738613     -2.183293    -0.493630
H     -0.030689     -1.626361    -2.526383
H      1.793957     -2.475264    -0.544891
C     -0.083266     -3.455801    -0.543116
C     -1.450490     -3.411862    -0.816566
C      0.505733     -4.690593    -0.279486
C     -2.209901     -4.574176    -0.836878
H     -1.924911     -2.455427    -1.020325
C     -0.251705     -5.856010    -0.297118
H      1.565606     -4.734450    -0.047942
C     -1.611453     -5.802397    -0.577601
H     -3.272406     -4.521600    -1.055026
H      0.223868     -6.810039    -0.090079
H     -2.203240     -6.712185    -0.592852
C     -0.390244      0.894154     1.144367
H     -0.842585      0.593963     2.096203
H     -1.122960      0.708065     0.350943
C      0.883222      0.048414     0.897927
C      0.531492     -1.473670     0.867538
H      1.540136      0.231620     1.758572
H     -0.520713     -1.571968     1.148538
C      1.332553     -2.172893     1.943762
O      2.374601     -2.757648     1.792699
O      0.761127     -2.029873     3.160847
H      1.347014     -2.462173     3.799733
49
 -1042.12573081 -1041.75489300  2.80 1.94
C      1.948126     -0.123107     1.220438
C      3.119425      0.443526     2.073093
H      1.444410      0.747063     0.781889
H      3.839751     -0.346908     2.304996
C      3.800884      1.687777     1.597255
C      3.283636      2.887963     1.864474
H      4.705165      1.595939     1.000623
H      3.757973      3.791117     1.491174
C      2.055585      3.027341     2.663851
C      1.493883      1.987045     3.284150
H      1.615558      4.017037     2.753696
H      0.592691      2.128330     3.876491
C      2.081094      0.606610     3.233762
C      1.219911     -0.468633     2.512257
H      2.429700      0.314695     4.230686
H      1.565941     -1.448162     2.867299
C      1.947679     -1.275767     0.232855
H      2.012336     -0.919910    -0.800334
H      2.803291     -1.942252     0.392623
C      0.635408     -2.101843     0.442699
C      0.263400     -2.819566    -0.829274
H      0.854904     -2.863801     1.200952
H      0.884268     -3.664521    -1.121299
C     -0.747188     -2.459208    -1.610131
C     -1.677633     -1.309263    -1.307848
H     -0.957210     -3.021361    -2.517259
H     -2.616460     -1.741988    -0.939050
C     -2.008673     -0.486652    -2.541149
C     -3.312029     -0.052236    -2.770874
C     -1.012532     -0.120258    -3.445355
C     -3.616794      0.730745    -3.878330
H     -4.099230     -0.329588    -2.074824
C     -1.312992      0.659614    -4.554407
H      0.007371     -0.456941    -3.281934
C     -2.617272      1.089142    -4.774100
H     -4.638723      1.059189    -4.041553
H     -0.525964      0.933821    -5.250354
H     -2.852000      1.699310    -5.640569
C     -0.278587     -0.497297     2.292299
H     -0.811456     -0.961064     3.127891
H     -0.647747      0.529274     2.210261
C     -0.574377     -1.284660     0.969450
C     -1.103594     -0.412675    -0.186677
H     -1.360083     -2.016267     1.188199
H     -0.294174      0.193730    -0.600173
C     -2.149078      0.576898     0.276663
O     -2.055006      1.774344     0.215791
O     -3.243406     -0.030567     0.794901
H     -3.850183      0.673986     1.064774
49
 -1042.12305715 -1041.75287100  4.48 3.21
C      2.165775     -1.687816    -0.632122
C      3.625501     -2.186387    -0.435527
H      2.245798     -0.739869    -1.180418
H      3.638517     -3.241754    -0.147173
C      4.620801     -1.893994    -1.513732
C      5.218949     -0.703188    -1.577154
H      4.823150     -2.655048    -2.263252
H      5.915529     -0.475216    -2.378930
C      4.949291      0.338941    -0.573528
C      4.231761      0.093213     0.525359
H      5.366117      1.328525    -0.741430
H      4.056381      0.884327     1.250932
C      3.669031     -1.264260     0.831078
C      2.118967     -1.359324     0.854472
H      4.163137     -1.684683     1.714052
H      1.869858     -2.277192     1.407048
C      0.921489     -2.417043    -1.079151
H      0.922871     -2.663344    -2.147019
H      0.812686     -3.356943    -0.524344
C     -0.274001     -1.485524    -0.765953
C     -0.378261     -0.335192    -1.740035
H     -1.192254     -2.080369    -0.868743
H      0.288901     -0.296298    -2.596652
C     -1.312166      0.588604    -1.551948
C     -2.245937      0.451263    -0.371072
H     -1.452551      1.412271    -2.245244
H     -2.909264     -0.396239    -0.579191
C     -3.119589      1.664604    -0.126903
C     -4.479624      1.515405     0.135448
C     -2.576686      2.949383    -0.125584
C     -5.282042      2.622505     0.387213
H     -4.915252      0.520000     0.144728
C     -3.374588      4.058102     0.122961
H     -1.516829      3.083411    -0.324653
C     -4.732009      3.898029     0.380446
H     -6.340369      2.486440     0.588355
H     -2.935639      5.051313     0.116767
H     -5.356307      4.764304     0.575210
C      1.065675     -0.318909     1.149233
H      0.996613     -0.051722     2.209887
H      1.267800      0.599226     0.586350
C     -0.283074     -0.928224     0.692252
C     -1.424508      0.114961     0.901217
H     -0.471799     -1.787412     1.348771
H     -0.973306      1.044670     1.253648
C     -2.323057     -0.332716     2.030485
O     -2.343902      0.137792     3.137202
O     -3.111271     -1.378951     1.681271
H     -3.630311     -1.609671     2.465378
