49
 -1042.13030653 -1041.75812600  0.00 0.00
C      1.883379     -0.601838    -1.353378
C      2.088422     -0.946634    -2.855921
H      1.558154      0.446423    -1.325258
H      2.671189     -1.866232    -2.965534
C      2.581662      0.135578    -3.763220
C      1.735086      1.034481    -4.268498
H      3.646255      0.199260    -3.973825
H      2.096371      1.841403    -4.899834
C      0.293003      0.966740    -3.982666
C     -0.253099     -0.071523    -3.345640
H     -0.332814      1.789735    -4.317705
H     -1.324348     -0.093884    -3.157311
C      0.552727     -1.255871    -2.897919
C      0.635299     -1.476095    -1.362847
H      0.257706     -2.143451    -3.468879
H      0.941098     -2.521952    -1.213599
C      2.746061     -0.877872    -0.145534
H      3.651239     -0.261288    -0.108466
H      3.063797     -1.927897    -0.135993
C      1.865779     -0.588994     1.098542
C      1.705414      0.896486     1.328114
H      2.403421     -0.987504     1.970727
H      2.541877      1.532142     1.042478
C      0.639359      1.452936     1.888248
C     -0.559502      0.690415     2.387450
H      0.617534      2.529800     2.041753
H     -0.652321      0.929736     3.454055
C     -1.873439      1.132735     1.751402
C     -3.076312      0.718114     2.327378
C     -1.931765      1.958698     0.632056
C     -4.298447      1.100705     1.793172
H     -3.054929      0.088947     3.213724
C     -3.154606      2.346146     0.093166
H     -1.011662      2.305811     0.173569
C     -4.342520      1.917038     0.668122
H     -5.219632      0.765044     2.259789
H     -3.174585      2.988037    -0.782265
H     -5.295719      2.219615     0.246598
C     -0.312865     -1.083185    -0.254516
H     -1.224266     -1.691448    -0.225126
H     -0.618098     -0.042208    -0.372922
C      0.474908     -1.281260     1.062995
C     -0.348428     -0.837947     2.294030
H      0.643821     -2.360642     1.157957
H     -1.320830     -1.338053     2.238114
C      0.315187     -1.357828     3.554937
O      0.869174     -0.702148     4.397638
O      0.225163     -2.705845     3.642185
H      0.677102     -2.964428     4.458655
49
 -1042.12978615 -1041.75765300  0.33 0.30
C      1.952682     -0.459352    -1.423904
C      2.182278     -0.668089    -2.947984
H      1.585737      0.569411    -1.311418
H      2.802681     -1.551104    -3.128559
C      2.637695      0.505496    -3.756040
C      1.759237      1.409063    -4.193951
H      3.700437      0.629563    -3.948398
H      2.092207      2.280059    -4.751385
C      0.318899      1.259885    -3.930914
C     -0.189131      0.150914    -3.388686
H     -0.337407      2.082315    -4.203096
H     -1.259981      0.070206    -3.214573
C      0.660711     -1.033525    -3.032128
C      0.741061     -1.377713    -1.519879
H      0.406083     -1.881157    -3.678261
H      1.087507     -2.419421    -1.454552
C      2.814394     -0.804749    -0.233928
H      3.696375     -0.161838    -0.134542
H      3.171096     -1.839473    -0.309905
C      1.917391     -0.656192     1.023034
C      1.709668      0.795999     1.378344
H      2.455072     -1.117498     1.858835
H      2.526575      1.480906     1.155511
C      0.624191      1.272637     1.975300
C     -0.555523      0.439104     2.399864
H      0.568363      2.331431     2.219523
H     -0.658878      0.576164     3.482645
C     -1.882948      0.916827     1.819703
C     -3.067491      0.450568     2.393757
C     -1.969226      1.812850     0.758760
C     -4.303896      0.855052     1.911007
H     -3.014065     -0.236763     3.234465
C     -3.207223      2.222374     0.272635
H     -1.061481      2.197562     0.305581
C     -4.378149      1.743741     0.843595
H     -5.212419      0.480179     2.372550
H     -3.252450      2.919947    -0.558028
H     -5.342877      2.063618     0.462959
C     -0.230009     -1.117236    -0.393088
H     -1.115216     -1.763031    -0.426402
H     -0.579199     -0.083053    -0.429592
C      0.550360     -1.388464     0.918068
C     -0.321895     -1.081370     2.144224
H      0.763855     -2.463999     0.940597
H     -1.305207     -1.539308     1.984450
C      0.204447     -1.764473     3.393493
O      1.220354     -2.400630     3.498458
O     -0.649035     -1.618548     4.436165
H     -0.255650     -2.088884     5.185690
49
 -1042.12781231 -1041.75658000  1.57 0.97
C      0.015451     -2.250166     0.485423
C     -0.200873     -3.501281     1.384313
H     -0.485122     -1.420224     0.998978
H      0.004641     -4.416142     0.819972
C     -1.479172     -3.602111     2.154635
C     -1.615448     -2.981867     3.327852
H     -2.308098     -4.157707     1.723357
H     -2.554753     -3.026662     3.871768
C     -0.505244     -2.216429     3.917504
C      0.721294     -2.230481     3.390876
H     -0.704727     -1.638427     4.815998
H      1.521478     -1.662331     3.860218
C      1.068870     -3.043616     2.178337
C      1.476847     -2.238330     0.912428
H      1.770553     -3.838275     2.455841
H      2.042293     -2.923265     0.267491
C     -0.148096     -2.106137    -1.016715
H     -1.103158     -1.637300    -1.274113
H     -0.129517     -3.080844    -1.517992
C      1.043039     -1.250400    -1.562799
C      0.645748     -0.564530    -2.844059
H      1.854385     -1.949827    -1.799876
H      0.528291     -1.191765    -3.725892
C      0.407503      0.737671    -2.939083
C      0.545323      1.703887    -1.789385
H      0.117531      1.167328    -3.895102
H      1.491771      2.244299    -1.921428
C     -0.570672      2.733271    -1.758065
C     -0.290490      4.070375    -1.484751
C     -1.897632      2.356317    -1.965044
C     -1.311396      5.011523    -1.420140
H      0.738007      4.376705    -1.315377
C     -2.919979      3.294006    -1.902136
H     -2.130093      1.317835    -2.184060
C     -2.629784      4.626240    -1.628929
H     -1.074182      6.049446    -1.207169
H     -3.947486      2.983960    -2.066739
H     -3.428333      5.359719    -1.579289
C      2.054876     -0.841818     0.813526
H      3.145334     -0.833251     0.900114
H      1.670494     -0.235271     1.639214
C      1.625850     -0.219850    -0.559084
C      0.640792      0.958123    -0.438785
H      2.526094      0.191435    -1.029525
H     -0.351966      0.597686    -0.155593
C      1.111797      1.938613     0.612880
O      2.147383      2.552916     0.563879
O      0.244965      2.067859     1.638994
H      0.625609      2.719094     2.247533
49
 -1042.12551548 -1041.75503000  3.01 1.94
C      1.094974     -2.405700     0.923326
C      1.221000     -3.952316     0.820831
H      1.669964     -2.004481     0.078771
H      0.915918     -4.428027     1.757764
C      2.503682     -4.519464     0.300481
C      2.729856     -4.590495    -1.012441
H      3.262805     -4.838185     1.010304
H      3.674456     -4.970184    -1.391591
C      1.715374     -4.152289    -1.984435
C      0.477892     -3.817733    -1.612034
H      1.995953     -4.116796    -3.033810
H     -0.250622     -3.505618    -2.357258
C      0.019975     -3.888632    -0.184343
C     -0.354893     -2.533700     0.474455
H     -0.738813     -4.671607    -0.075263
H     -0.969810     -2.775612     1.353539
C      1.231929     -1.472204     2.103292
H      2.266354     -1.354670     2.445256
H      0.644496     -1.842784     2.952205
C      0.680431     -0.101299     1.642135
C      1.619470      0.595437     0.684178
H      0.582063      0.537504     2.531070
H      2.606570      0.177683     0.505167
C      1.237480      1.723459     0.100021
C     -0.110126      2.315160     0.435783
H      1.894391      2.268468    -0.571010
H     -0.041188      2.737926     1.444570
C     -0.531204      3.433036    -0.497180
C     -1.053524      4.621218     0.008938
C     -0.433858      3.281489    -1.880784
C     -1.463285      5.637559    -0.846274
H     -1.150480      4.742905     1.083402
C     -0.842054      4.294513    -2.738170
H     -0.031200      2.359343    -2.292125
C     -1.358024      5.478626    -2.222354
H     -1.867092      6.557396    -0.433961
H     -0.758362      4.159681    -3.812429
H     -1.677742      6.271910    -2.890646
C     -0.862398     -1.241837    -0.120298
H     -1.906449     -1.295138    -0.448471
H     -0.254420     -0.950349    -0.984323
C     -0.737215     -0.178889     0.998240
C     -1.201749      1.218804     0.475402
H     -1.423766     -0.492535     1.795756
H     -1.579823      1.078602    -0.540983
C     -2.373220      1.679855     1.312891
O     -2.328285      2.438816     2.246579
O     -3.526103      1.090646     0.922223
H     -4.219330      1.400506     1.523602
49
 -1042.12589230 -1041.75493700  2.77 2.00
C      0.809049     -1.893210     1.036721
C      1.440683     -2.702498     2.205482
H      0.514439     -0.926040     1.462535
H      1.491632     -3.765261     1.949272
C      0.896298     -2.491294     3.582705
C      1.316268     -1.468649     4.329388
H      0.124445     -3.163263     3.949492
H      0.896802     -1.295107     5.316351
C      2.352056     -0.544293     3.840665
C      3.020808     -0.767396     2.707096
H      2.575367      0.334507     4.439852
H      3.789068     -0.069097     2.382244
C      2.788828     -1.984535     1.860171
C      2.201454     -1.726756     0.443990
H      3.683365     -2.617449     1.871588
H      2.437513     -2.608449    -0.165726
C     -0.207405     -2.337364     0.000861
H     -1.218910     -2.011556     0.263000
H     -0.239685     -3.429656    -0.086250
C      0.213540     -1.746179    -1.386177
C     -0.994014     -1.591202    -2.274376
H      0.879769     -2.479532    -1.857455
H     -1.442342     -2.502936    -2.664905
C     -1.544517     -0.420835    -2.571768
C     -1.008713      0.907379    -2.094123
H     -2.420612     -0.381117    -3.214884
H     -0.476372      1.365561    -2.937097
C     -2.114680      1.860938    -1.677771
C     -2.083477      3.195564    -2.074171
C     -3.162652      1.429003    -0.865313
C     -3.074856      4.082265    -1.669514
H     -1.272699      3.546506    -2.706987
C     -4.155736      2.310803    -0.459729
H     -3.203172      0.389220    -0.552810
C     -4.114600      3.642019    -0.860459
H     -3.034285      5.118960    -1.989588
H     -4.965228      1.958035     0.172102
H     -4.890439      4.331557    -0.543014
C      2.277006     -0.475380    -0.406549
H      3.177025     -0.451263    -1.028703
H      2.320872      0.401022     0.246905
C      1.001878     -0.410379    -1.315191
C      0.009994      0.711174    -0.948702
H      1.336081     -0.201520    -2.337810
H     -0.531829      0.450281    -0.036388
C      0.709574      2.015355    -0.639582
O      0.694919      2.582009     0.421195
O      1.390821      2.502781    -1.703898
H      1.806669      3.327274    -1.412671
49
 -1042.12321864 -1041.75295600  4.45 3.24
C      1.113731     -2.251865    -1.282372
C      1.001903     -3.564552    -2.108672
H      0.971892     -1.433221    -2.000180
H      1.399312     -4.412171    -1.542198
C      1.504093     -3.552778    -3.517735
C      0.742532     -3.077398    -4.504632
H      2.513355     -3.903487    -3.718025
H      1.118350     -3.036290    -5.523090
C     -0.621545     -2.589229    -4.245821
C     -1.213892     -2.742754    -3.059445
H     -1.151998     -2.101805    -5.059586
H     -2.226619     -2.377107    -2.903906
C     -0.548433     -3.445638    -1.912242
C     -0.243299     -2.569182    -0.667259
H     -1.076989     -4.379674    -1.691149
H     -0.091318     -3.261579     0.173334
C      2.110730     -1.824983    -0.231893
H      3.098548     -1.586503    -0.642010
H      2.246128     -2.623842     0.507473
C      1.521907     -0.570287     0.456459
C      1.640223      0.668173    -0.401961
H      2.110610     -0.388538     1.366300
H      2.179200      0.619665    -1.344249
C      1.115618      1.806754     0.033683
C      0.422642      1.820507     1.376607
H      1.203575      2.732437    -0.526466
H      1.193400      1.694178     2.145013
C     -0.316689      3.108435     1.675190
C     -0.167348      3.740534     2.907313
C     -1.183324      3.670660     0.737588
C     -0.862731      4.908842     3.198067
H      0.498889      3.310193     3.649802
C     -1.879181      4.837785     1.023116
H     -1.314586      3.190207    -0.228349
C     -1.720613      5.461834     2.256151
H     -0.732265      5.387450     4.163935
H     -2.549326      5.261864     0.281326
H     -2.264702      6.373902     2.480243
C     -0.909379     -1.318925    -0.146101
H     -1.891017     -1.499814     0.306395
H     -1.045749     -0.594413    -0.956819
C      0.041001     -0.733443     0.927500
C     -0.542922      0.610629     1.462440
H      0.061477     -1.458431     1.751213
H     -1.425171      0.858011     0.868574
C     -1.061952      0.418909     2.868142
O     -2.219977      0.331148     3.181686
O     -0.062924      0.315314     3.778640
H     -0.485164      0.170477     4.637969
49
 -1042.12129864 -1041.75047400  5.65 4.80
C      0.365236     -0.993430     2.054037
C      0.791605     -2.127502     3.029877
H      0.737332     -1.293193     1.066561
H      0.723781     -1.783389     4.066516
C      2.082614     -2.835279     2.765000
C      2.138788     -3.838503     1.887526
H      2.981380     -2.492550     3.271479
H      3.082323     -4.330676     1.669238
C      0.931594     -4.305024     1.186593
C     -0.285967     -3.857574     1.501433
H      1.052244     -5.046183     0.400919
H     -1.157934     -4.233467     0.970668
C     -0.521064     -2.868295     2.605155
C     -1.072229     -1.481060     2.169932
H     -1.083472     -3.345879     3.415316
H     -1.530945     -1.028518     3.058629
C      0.481492      0.510898     2.218449
H      1.340209      0.909417     1.668758
H      0.622771      0.790647     3.268891
C     -0.843870      1.169750     1.710248
C     -0.579826      2.588695     1.277975
H     -1.526471      1.208832     2.568095
H     -0.355986      3.310080     2.061876
C     -0.575080      2.987364     0.012377
C     -0.882137      2.081670    -1.153548
H     -0.370390      4.027817    -0.228800
H     -1.911849      2.290383    -1.471916
C      0.027953      2.330074    -2.344000
C      1.403120      2.489681    -2.170625
C     -0.491473      2.362999    -3.636305
C      2.238567      2.683732    -3.263247
H      1.821196      2.471094    -1.167851
C      0.341667      2.555148    -4.731957
H     -1.559132      2.229984    -3.787142
C      1.709419      2.717322    -4.548679
H      3.306371      2.808581    -3.111153
H     -0.080532      2.579408    -5.731890
H      2.361149      2.868303    -5.403373
C     -1.868339     -1.111954     0.936208
H     -2.942639     -1.268494     1.067078
H     -1.561319     -1.752289     0.102758
C     -1.587675      0.390850     0.591253
C     -0.840332      0.592616    -0.735502
H     -2.557031      0.884411     0.464798
H      0.208720      0.293027    -0.615263
C     -1.488120     -0.211822    -1.855350
O     -2.667868     -0.202643    -2.071640
O     -0.664030     -0.938682    -2.642609
H      0.256178     -0.786377    -2.396794
49
 -1042.11751245 -1041.74668100  8.03 7.18
C      1.717913     -0.795999     1.249220
C      2.539496     -1.891468     1.987595
H      0.975397     -1.331116     0.644400
H      3.473553     -1.471807     2.373708
C      2.766043     -3.192915     1.285651
C      1.837979     -4.150754     1.315476
H      3.683655     -3.329328     0.718960
H      1.987341     -5.082906     0.777971
C      0.586242     -3.974673     2.069342
C      0.385430     -2.927025     2.871836
H     -0.181663     -4.737062     1.968224
H     -0.546963     -2.835983     3.424757
C      1.424662     -1.865653     3.086977
C      1.060289     -0.443400     2.576560
H      1.776196     -1.898084     4.124350
H      1.701845      0.265150     3.116132
C      2.208215      0.433253     0.505853
H      2.235649      0.266847    -0.575510
H      3.225199      0.706361     0.810010
C      1.256029      1.627042     0.850275
C      1.255800      2.638827    -0.266208
H      1.665733      2.116525     1.742521
H      2.147366      3.252814    -0.378183
C      0.251963      2.794029    -1.120329
C     -1.033439      2.002744    -1.066433
H      0.321289      3.540885    -1.907781
H     -1.805461      2.679778    -0.669721
C     -1.497908      1.557304    -2.442860
C     -2.845581      1.616869    -2.787494
C     -0.590706      1.045235    -3.369155
C     -3.281096      1.176515    -4.031782
H     -3.568095      2.004530    -2.073929
C     -1.021766      0.606217    -4.614359
H      0.464201      0.995903    -3.114794
C     -2.369567      0.670581    -4.949832
H     -4.335706      1.230771    -4.283681
H     -0.302612      0.211594    -5.325542
H     -2.706709      0.326988    -5.922637
C     -0.308343      0.167872     2.355221
H     -0.694009      0.649480     3.259665
H     -1.020087     -0.618566     2.087428
C     -0.201034      1.215135     1.194340
C     -0.897898      0.791141    -0.114035
H     -0.684875      2.142133     1.535838
H     -0.300425      0.028820    -0.617700
C     -2.254447      0.139002     0.112678
O     -2.543207     -0.960140    -0.261882
O     -3.171704      0.885042     0.782736
H     -2.784183      1.721489     1.066128
