49
 -1042.12860185 -1041.75724400  0.00 0.00
C      0.632052      0.201262    -2.202588
C      1.481462      0.655908    -3.424190
H      1.314517     -0.352749    -1.546191
H      0.830267      0.949329    -4.253269
C      2.591196     -0.236308    -3.882318
C      3.785220     -0.194483    -3.288930
H      2.396253     -0.947045    -4.681538
H      4.581214     -0.865856    -3.598511
C      4.059292      0.753735    -2.197137
C      3.190871      1.708084    -1.855124
H      5.007366      0.667860    -1.672744
H      3.431922      2.399789    -1.050857
C      1.886186      1.905128    -2.570491
C      0.603678      1.651400    -1.730906
H      1.898946      2.863294    -3.102137
H     -0.217447      2.166613    -2.244510
C     -0.746554     -0.442886    -2.172790
H     -0.678210     -1.529491    -2.048054
H     -1.296728     -0.258975    -3.102913
C     -1.529865      0.191685    -0.983457
C     -2.629723     -0.714417    -0.500437
H     -2.006612      1.103168    -1.358533
H     -3.244893     -1.178874    -1.270363
C     -2.889730     -0.980365     0.774559
C     -2.127311     -0.378702     1.928002
H     -3.690125     -1.670761     1.030520
H     -2.852069     -0.066455     2.687227
C     -1.190164     -1.365361     2.610958
C     -0.851063     -1.157905     3.948023
C     -0.635655     -2.456424     1.945878
C      0.021402     -2.014447     4.606430
H     -1.281719     -0.312926     4.479843
C      0.237496     -3.317186     2.601812
H     -0.893202     -2.637049     0.907420
C      0.570170     -3.099626     3.932850
H      0.270079     -1.835930     5.648128
H      0.659174     -4.163208     2.067631
H      1.251743     -3.772947     4.442834
C      0.385006      1.756100    -0.230016
H     -0.034786      2.728503     0.041520
H      1.324015      1.634545     0.320510
C     -0.580778      0.602411     0.169708
C     -1.347654      0.880570     1.463893
H      0.040284     -0.275399     0.388042
H     -0.635517      1.143657     2.254887
C     -2.292999      2.062849     1.359279
O     -2.574456      2.683862     0.367495
O     -2.813865      2.382645     2.566635
H     -3.408685      3.133382     2.423918
49
 -1042.12540781 -1041.75501700  2.00 1.40
C     -0.059283     -1.037232    -1.971722
C      0.381390     -1.392673    -3.420527
H      0.807082     -1.239086    -1.329396
H     -0.493828     -1.506167    -4.067644
C      1.354736     -2.513331    -3.606284
C      2.665458     -2.303578    -3.473705
H      0.972911     -3.510024    -3.812956
H      3.370504     -3.123825    -3.575197
C      3.195523     -0.961933    -3.181663
C      2.416667      0.122114    -3.186187
H      4.257486     -0.867796    -2.970551
H      2.844449      1.100331    -2.977619
C      0.953137      0.062341    -3.513774
C     -0.018028      0.436986    -2.360151
H      0.764870      0.589881    -4.455722
H     -0.976002      0.702620    -2.825090
C     -1.339603     -1.409987    -1.240159
H     -1.186004     -2.271565    -0.581010
H     -2.138545     -1.679709    -1.940571
C     -1.788027     -0.168309    -0.407911
C     -2.616533     -0.583083     0.782692
H     -2.427112      0.439042    -1.059704
H     -3.391155     -1.325173     0.593708
C     -2.452417     -0.126548     2.019554
C     -1.442718      0.930460     2.393026
H     -3.073623     -0.514852     2.823369
H     -1.936126      1.647162     3.056272
C     -0.238461      0.381901     3.144610
C      0.502741      1.243046     3.954369
C      0.167326     -0.947578     3.046526
C      1.621809      0.794194     4.642894
H      0.194025      2.281012     4.050858
C      1.286749     -1.401656     3.735044
H     -0.400822     -1.635553     2.429083
C      2.019300     -0.533458     4.534144
H      2.182054      1.482015     5.268917
H      1.586301     -2.441485     3.645702
H      2.892755     -0.889689     5.070935
C      0.211147      1.330628    -1.153462
H     -0.097412      2.359266    -1.347571
H      1.271777      1.351405    -0.880962
C     -0.586042      0.705279     0.031636
C     -1.013910      1.699292     1.121761
H      0.107005      0.022593     0.538315
H     -0.157024      2.338207     1.371407
C     -2.125482      2.676806     0.755664
O     -2.811223      3.255642     1.558599
O     -2.272356      2.891357    -0.570714
H     -2.985464      3.540715    -0.658837
49
 -1042.12201640 -1041.75039300  4.13 4.30
C      1.877339     -0.989287     0.866797
C      3.311454     -1.100615     1.458381
H      1.327676     -0.303180     1.522883
H      3.824574     -1.977281     1.051273
C      3.469606     -1.006683     2.942945
C      3.526427      0.182025     3.545625
H      3.498732     -1.923931     3.525680
H      3.607460      0.251316     4.626726
C      3.476147      1.431687     2.769681
C      3.525133      1.438131     1.435806
H      3.410467      2.369007     3.315821
H      3.498954      2.381545     0.894900
C      3.661401      0.180450     0.628023
C      2.455512     -0.175201    -0.285801
H      4.632893      0.171055     0.121279
H      2.833961     -0.872081    -1.044984
C      0.949012     -2.091568     0.382722
H      0.215344     -2.364335     1.149285
H      1.502648     -3.002186     0.126992
C      0.218005     -1.561714    -0.891322
C     -1.108715     -2.255019    -1.075910
H      0.851564     -1.819320    -1.752404
H     -1.127010     -3.328668    -0.893433
C     -2.238571     -1.642239    -1.424726
C     -2.334923     -0.164897    -1.724305
H     -3.161749     -2.213389    -1.494453
H     -2.912865     -0.045247    -2.650728
C     -3.099203      0.594480    -0.646479
C     -3.767548      1.769352    -0.989398
C     -3.135928      0.169490     0.679559
C     -4.453449      2.506026    -0.032972
H     -3.752763      2.109908    -2.021655
C     -3.822376      0.904759     1.639981
H     -2.630631     -0.746968     0.965726
C     -4.482143      2.075049     1.288435
H     -4.969072      3.416842    -0.321419
H     -3.841021      0.557854     2.668579
H     -5.017756      2.647248     2.039191
C      1.413354      0.731997    -0.918954
H      1.672410      0.996482    -1.947613
H      1.309255      1.668980    -0.362483
C      0.052381     -0.021275    -0.866107
C     -0.936785      0.461454    -1.945206
H     -0.420697      0.221367     0.093326
H     -1.021482      1.547436    -1.860379
C     -0.394321      0.242451    -3.358883
O      0.214061      1.086641    -3.957384
O     -0.614191     -0.958388    -3.936620
H     -1.092568     -1.549558    -3.335995
49
 -1042.12023994 -1041.74911300  5.25 5.10
C      1.785910     -1.474905     0.083964
C      3.262792     -1.947801     0.209355
H      1.575139     -0.892133     0.989188
H      3.461511     -2.766600    -0.488925
C      3.793799     -2.245521     1.575681
C      4.250061     -1.264179     2.355642
H      3.765337     -3.270420     1.937129
H      4.604227     -1.475024     3.360773
C      4.282666      0.129624     1.883970
C      4.005927      0.454529     0.619159
H      4.554654      0.903348     2.597110
H      4.052277      1.494138     0.302176
C      3.667988     -0.572721    -0.421708
C      2.229846     -0.503774    -1.005311
H      4.462718     -0.608593    -1.175337
H      2.250324     -1.041688    -1.961118
C      0.549798     -2.267192    -0.317588
H     -0.026277     -2.582884     0.559658
H      0.815913     -3.174440    -0.872223
C     -0.313233     -1.346130    -1.232266
C     -1.756922     -1.765344    -1.237959
H      0.056614     -1.465871    -2.255125
H     -1.949133     -2.832760    -1.340178
C     -2.788845     -0.937503    -1.130294
C     -2.654610      0.559506    -1.005984
H     -3.802231     -1.331440    -1.119400
H     -3.402756      1.007884    -1.672960
C     -2.966041      1.070992     0.394187
C     -3.477983      2.358454     0.552846
C     -2.730975      0.305315     1.534371
C     -3.743599      2.874369     1.814754
H     -3.681803      2.967222    -0.325212
C     -2.996382      0.816963     2.799279
H     -2.343395     -0.702712     1.430839
C     -3.501520      2.102999     2.945072
H     -4.144129      3.878575     1.913898
H     -2.807515      0.204781     3.675840
H     -3.708127      2.500134     3.933738
C      1.283806      0.679921    -1.130537
H      1.342657      1.129780    -2.125607
H      1.519064      1.460767    -0.399358
C     -0.150433      0.145002    -0.847681
C     -1.242908      1.024878    -1.460263
H     -0.308004      0.205741     0.236624
H     -1.093793      2.052117    -1.100829
C     -1.185751      1.083472    -2.984087
O     -0.579440      0.334365    -3.694329
O     -1.908677      2.087826    -3.542902
H     -2.308552      2.636931    -2.858072
