49
 -1042.13283663 -1041.76112900  0.00 0.00
C      0.773880      0.104343    -2.356209
C      1.211777     -0.825342    -3.523731
H      0.032173      0.789910    -2.788731
H      2.131682     -1.359550    -3.268005
C      1.269729     -0.244194    -4.900749
C      0.162645     -0.134684    -5.637137
H      2.221970      0.120836    -5.277242
H      0.196898      0.318210    -6.624025
C     -1.135642     -0.614036    -5.136027
C     -1.240912     -1.316480    -4.005784
H     -2.023110     -0.389909    -5.722031
H     -2.215137     -1.662652    -3.667279
C     -0.046668     -1.694141    -3.178749
C      0.019313     -1.076942    -1.755522
H      0.097945     -2.779945    -3.209604
H      0.737124     -1.690753    -1.191982
C      1.575339      0.859416    -1.317704
H      2.113207      1.718638    -1.734241
H      2.313475      0.204382    -0.835872
C      0.528194      1.343025    -0.285026
C      1.140964      2.149338     0.829024
H     -0.148513      2.010639    -0.831848
H      1.941522      2.833772     0.551296
C      0.754919      2.093476     2.099013
C     -0.360932      1.213013     2.605797
H      1.258137      2.706394     2.843689
H     -1.008398      1.825236     3.242186
C      0.132939      0.065913     3.479747
C     -0.732913     -0.481973     4.426651
C      1.409352     -0.476897     3.351999
C     -0.337435     -1.546272     5.225906
H     -1.730432     -0.064272     4.538659
C      1.809443     -1.541578     4.152124
H      2.098509     -0.058920     2.625597
C      0.938502     -2.081116     5.089990
H     -1.026042     -1.956837     5.958106
H      2.808954     -1.950676     4.040386
H      1.252904     -2.912445     5.712894
C     -1.067614     -0.626996    -0.801838
H     -1.605010     -1.463478    -0.339591
H     -1.798333      0.005156    -1.315342
C     -0.322758      0.181917     0.286310
C     -1.218130      0.664651     1.430958
H      0.380875     -0.519426     0.757939
H     -1.793450     -0.185924     1.815127
C     -2.259751      1.682295     1.007356
O     -2.378460      2.202029    -0.071628
O     -3.115467      1.955464     2.021066
H     -3.747257      2.607378     1.684079
49
 -1042.13156261 -1041.76048200  0.80 0.41
C     -0.104924     -2.402030     0.610266
C      0.626770     -3.747631     0.340242
H     -0.172216     -2.316509     1.703733
H      0.501238     -4.052603    -0.702958
C      0.383106     -4.881048     1.285400
C      1.046915     -4.954866     2.440396
H     -0.369948     -5.623058     1.032311
H      0.846530     -5.758471     3.143447
C      2.061555     -3.951601     2.800922
C      2.476547     -3.023638     1.935526
H      2.483444     -3.989487     3.801820
H      3.234973     -2.301937     2.231394
C      1.963447     -2.949960     0.526900
C      1.157079     -1.673831     0.162375
H      2.768743     -3.193567    -0.175189
H      1.151383     -1.619124    -0.935862
C     -1.352194     -1.801832     0.001802
H     -2.271328     -2.305193     0.322300
H     -1.313934     -1.845089    -1.094712
C     -1.371374     -0.326460     0.471934
C     -2.555946      0.426407    -0.078265
H     -1.484189     -0.357970     1.566744
H     -3.486048     -0.130738    -0.178072
C     -2.527583      1.707625    -0.419865
C     -1.312213      2.592155    -0.293707
H     -3.422488      2.180757    -0.817944
H     -1.622884      3.494782     0.245200
C     -0.777041      3.049216    -1.646084
C     -0.089206      4.259993    -1.735768
C     -0.926399      2.284700    -2.801704
C      0.438665      4.696398    -2.943626
H      0.031257      4.871640    -0.844982
C     -0.400446      2.718842    -4.013438
H     -1.467743      1.345500    -2.754807
C      0.285285      3.924297    -4.089478
H      0.968589      5.642929    -2.990411
H     -0.529152      2.110007    -4.903239
H      0.695371      4.261214    -5.036197
C      1.210103     -0.263235     0.707953
H      2.102019      0.291197     0.395802
H      1.197390     -0.275852     1.802010
C     -0.056745      0.426219     0.148097
C     -0.186374      1.918182     0.524413
H      0.050162      0.418133    -0.945762
H      0.765256      2.406824     0.293228
C     -0.417394      2.110260     2.010284
O     -1.481335      2.255602     2.552264
O      0.743789      2.115890     2.706713
H      0.509494      2.236962     3.638597
49
 -1042.13005531 -1041.75920200  1.75 1.21
C      0.798294      0.273507    -2.325834
C      1.265454     -0.555059    -3.556237
H      0.036438      0.967120    -2.707881
H      2.203422     -1.074266    -3.337888
C      1.302125      0.125397    -4.887747
C      0.191194      0.249599    -5.616039
H      2.241028      0.548997    -5.235257
H      0.208987      0.773436    -6.567616
C     -1.089133     -0.309509    -5.153159
C     -1.169184     -1.094748    -4.076527
H     -1.984173     -0.075326    -5.723493
H     -2.130447     -1.498569    -3.765995
C      0.037658     -1.488379    -3.275833
C      0.081324     -0.970123    -1.812121
H      0.219288     -2.563784    -3.381824
H      0.816091     -1.598496    -1.288023
C      1.581016      0.968688    -1.234728
H      2.094598      1.872130    -1.582522
H      2.338253      0.298333    -0.807340
C      0.536695      1.340740    -0.153828
C      1.169584      2.021510     1.034420
H     -0.142936      2.067133    -0.628318
H      2.009628      2.683311     0.829541
C      0.755170      1.868406     2.285815
C     -0.417101      1.007379     2.690104
H      1.272864      2.382251     3.093051
H     -1.062219      1.613205     3.335734
C      0.002361     -0.203714     3.516591
C     -0.909437     -0.768312     4.409138
C      1.262415     -0.786531     3.397993
C     -0.576230     -1.886568     5.161782
H     -1.895092     -0.322397     4.517942
C      1.600259     -1.905775     4.151079
H      1.989148     -0.356149     2.716911
C      0.683156     -2.461170     5.033793
H     -1.300903     -2.308274     5.851635
H      2.587813     -2.344752     4.046247
H      0.948904     -3.334915     5.620233
C     -1.023457     -0.617425    -0.840018
H     -1.545563     -1.493374    -0.439743
H     -1.773753      0.019837    -1.316064
C     -0.311344      0.131036     0.311615
C     -1.245234      0.556896     1.464704
H      0.387379     -0.588701     0.760380
H     -1.849728     -0.312014     1.741977
C     -2.258828      1.584077     0.992307
O     -3.213289      1.326264     0.302871
O     -2.009234      2.843240     1.408913
H     -2.713264      3.395840     1.039259
