49
 -1042.12661006 -1041.75425200  0.00 0.00
C      1.065767     -2.333035    -0.424378
C      0.469211     -3.762456    -0.272197
H      1.772436     -2.389802    -1.264605
H     -0.018150     -3.874490     0.700757
C      1.351332     -4.928107    -0.588976
C      1.516769     -5.330763    -1.850099
H      1.885262     -5.417865     0.221555
H      2.184225     -6.155193    -2.084814
C      0.809968     -4.669975    -2.959249
C     -0.137269     -3.753529    -2.747279
H      1.071780     -4.957287    -3.974227
H     -0.646243     -3.291022    -3.590325
C     -0.571221     -3.348025    -1.368766
C     -0.280356     -1.874939    -0.969439
H     -1.604344     -3.669316    -1.194407
H     -0.937728     -1.662371    -0.119865
C      1.596336     -1.368889     0.609010
H      2.574842     -1.662659     1.006462
H      0.909848     -1.273400     1.453693
C      1.750257     -0.004828    -0.122595
C      2.187378      1.065839     0.842609
H      2.583402     -0.155049    -0.825357
H      3.110465      0.867891     1.385406
C      1.539740      2.200349     1.070234
C      0.278223      2.598539     0.344547
H      1.947904      2.921979     1.773443
H      0.589216      3.197043    -0.524144
C     -0.655296      3.481870     1.156094
C     -0.772574      3.352122     2.538718
C     -1.435158      4.438377     0.506869
C     -1.646445      4.161867     3.253236
H     -0.187176      2.599240     3.054471
C     -2.313287      5.246905     1.217396
H     -1.351688      4.554410    -0.571121
C     -2.420915      5.110942     2.596442
H     -1.725499      4.047304     4.330185
H     -2.912278      5.985433     0.693232
H     -3.104433      5.740716     3.157176
C     -0.139873     -0.643048    -1.833646
H     -1.098180     -0.275302    -2.217333
H      0.485698     -0.882361    -2.701166
C      0.554929      0.476467    -1.006355
C     -0.454213      1.372740    -0.249097
H      1.003970      1.166729    -1.732687
H     -1.183077      1.735731    -0.979335
C     -1.257146      0.644510     0.809845
O     -0.859403      0.269859     1.881269
O     -2.539154      0.451850     0.420813
H     -2.987851     -0.005001     1.147996
49
 -1042.12377491 -1041.75104300  1.78 2.01
C      1.577030     -1.887814     0.796155
C      1.750124     -2.546620     2.195174
H      1.795554     -2.677328     0.063085
H      1.832652     -1.781919     2.973139
C      2.792822     -3.608326     2.346549
C      2.535820     -4.867328     1.987620
H      3.775628     -3.329674     2.718457
H      3.303272     -5.632411     2.064703
C      1.213597     -5.257251     1.471734
C      0.174450     -4.419337     1.485648
H      1.094799     -6.265009     1.082391
H     -0.791787     -4.743194     1.104639
C      0.266643     -3.031450     2.049871
C      0.073535     -1.869668     1.036245
H     -0.352932     -2.954166     2.950392
H     -0.173343     -0.989776     1.639429
C      2.066284     -0.564905     0.258891
H      3.143648     -0.555518     0.056504
H      1.856394      0.248315     0.957187
C      1.309236     -0.345676    -1.081511
C      1.646964      0.997548    -1.672930
H      1.727914     -1.101292    -1.762689
H      2.703371      1.182552    -1.862716
C      0.766794      1.942258    -1.976535
C     -0.723609      1.785494    -1.804190
H      1.109586      2.867677    -2.433079
H     -1.112667      1.442228    -2.774301
C     -1.461418      3.077765    -1.489239
C     -2.808617      3.194355    -1.830998
C     -0.843303      4.149153    -0.848128
C     -3.522944      4.349341    -1.540874
H     -3.305878      2.368468    -2.333743
C     -1.552803      5.308772    -0.559908
H      0.199867      4.069660    -0.563050
C     -2.895178      5.413227    -0.903209
H     -4.571167      4.419029    -1.815256
H     -1.053942      6.133256    -0.059315
H     -3.448820      6.318457    -0.674705
C     -0.697327     -1.833312    -0.263483
H     -1.781827     -1.787285    -0.116270
H     -0.483905     -2.743937    -0.834651
C     -0.231584     -0.600653    -1.090974
C     -1.084380      0.659371    -0.806370
H     -0.466512     -0.822647    -2.140264
H     -2.127391      0.380043    -0.978608
C     -1.094672      1.121041     0.636229
O     -2.003449      0.920462     1.401818
O      0.009650      1.797794     1.011565
H     -0.136176      2.070232     1.929570
49
 -1042.12106536 -1041.74853600  3.48 3.59
C     -0.179180     -2.569702    -0.056534
C     -0.737301     -3.347588     1.169269
H     -0.928822     -2.654095    -0.853641
H      0.067959     -3.572569     1.875371
C     -1.595803     -4.545473     0.913537
C     -2.900569     -4.407798     0.672422
H     -1.130668     -5.527862     0.889675
H     -3.517684     -5.274910     0.454306
C     -3.541601     -3.083001     0.687669
C     -2.890303     -1.987681     1.085041
H     -4.579907     -3.014891     0.373799
H     -3.397762     -1.025551     1.092064
C     -1.471026     -2.024530     1.570299
C     -0.433477     -1.268902     0.692672
H     -1.439216     -1.765023     2.634466
H      0.437092     -1.057237     1.327073
C      1.216189     -2.618004    -0.646934
H      1.275108     -3.329727    -1.476565
H      1.940932     -2.950851     0.104706
C      1.601304     -1.184849    -1.134465
C      2.594265     -0.510189    -0.216571
H      2.114121     -1.306147    -2.099102
H      3.277315     -1.155224     0.332625
C      2.713167      0.804981    -0.078859
C      1.869526      1.822407    -0.804978
H      3.469826      1.204446     0.593199
H      2.557396      2.464843    -1.369498
C      1.148173      2.761390     0.162640
C      0.859006      2.391312     1.475178
C      0.808236      4.050991    -0.248013
C      0.221803      3.271128     2.341591
H      1.137118      1.402796     1.824774
C      0.168478      4.932724     0.613118
H      1.054325      4.373856    -1.254574
C     -0.132880      4.543803     1.912696
H      0.001601      2.957720     3.357420
H     -0.089162      5.929361     0.267786
H     -0.632923      5.229681     2.589198
C     -0.654927     -0.119114    -0.264541
H     -0.597130      0.850135     0.228126
H     -1.650261     -0.176902    -0.710169
C      0.394975     -0.239930    -1.416486
C      0.990890      1.100985    -1.874558
H     -0.131182     -0.656714    -2.283074
H      1.681989      0.875062    -2.696254
C     -0.048773      2.019467    -2.481281
O     -1.237691      1.976412    -2.310903
O      0.519879      2.934209    -3.306939
H     -0.202421      3.476757    -3.656776
49
 -1042.12095770 -1041.74793300  3.55 3.97
C      0.952813     -2.467096     0.133725
C      0.635469     -3.686655     1.047401
H      1.209037     -2.885741    -0.849918
H      0.653292     -3.393172     2.101108
C      1.391566     -4.955462     0.811269
C      1.010166     -5.804471    -0.144574
H      2.279356     -5.155977     1.405848
H      1.578714     -6.709309    -0.340269
C     -0.182712     -5.540774    -0.965543
C     -1.019234     -4.536376    -0.694433
H     -0.379101     -6.200614    -1.806564
H     -1.897004     -4.375437    -1.316764
C     -0.823316     -3.619453     0.477700
C     -0.531528     -2.131837     0.137314
H     -1.629144     -3.768335     1.205369
H     -0.749192     -1.571000     1.051295
C      1.787778     -1.235194     0.383461
H      2.865093     -1.437554     0.381586
H      1.541637     -0.773985     1.344283
C      1.466642     -0.258197    -0.783702
C      2.181845      1.048874    -0.569981
H      1.906960     -0.728216    -1.675617
H      3.256879      0.981448    -0.411419
C      1.602064      2.239458    -0.525357
C      0.119717      2.449017    -0.760534
H      2.213811      3.115497    -0.339089
H     -0.009771      2.555217    -1.849343
C     -0.414307      3.752137    -0.171251
C     -1.620693      3.844386     0.520956
C      0.296971      4.934881    -0.393856
C     -2.079545      5.065921     1.006479
H     -2.235779      2.969263     0.691230
C     -0.156851      6.153966     0.086622
H      1.219692      4.906805    -0.965043
C     -1.349122      6.225775     0.799796
H     -3.020058      5.102931     1.548240
H      0.422103      7.053515    -0.099873
H     -1.706665      7.177240     1.180247
C     -0.923943     -1.314151    -1.071575
H     -1.982272     -1.030860    -1.071708
H     -0.747424     -1.905703    -1.977256
C     -0.039562     -0.034598    -1.132877
C     -0.666909      1.177248    -0.392742
H     -0.040623      0.289227    -2.181642
H     -1.692020      1.276955    -0.759826
C     -0.769441      0.981983     1.108314
O      0.096814      1.156579     1.920629
O     -2.015525      0.580088     1.472185
H     -2.006682      0.481753     2.435697
49
 -1042.11952218 -1041.74728200  4.45 4.37
C      1.239775      2.066444    -0.828664
C      2.614730      2.434851    -0.201958
H      1.439961      1.725801    -1.852627
H      2.473227      3.064589     0.681833
C      3.676870      2.980740    -1.102740
C      4.455429      2.160752    -1.810593
H      3.777943      4.058856    -1.199801
H      5.204737      2.557872    -2.489640
C      4.321262      0.699324    -1.699438
C      3.529295      0.129799    -0.788218
H      4.900760      0.080581    -2.379560
H      3.461524     -0.954201    -0.727620
C      2.739098      0.928819     0.206120
C      1.192618      0.840957     0.073282
H      3.118439      0.738041     1.216347
H      0.764548      1.135642     1.039966
C     -0.057275      2.849697    -0.785085
H     -0.183866      3.463627    -1.682519
H     -0.065229      3.536398     0.068863
C     -1.243879      1.844042    -0.646190
C     -1.818691      1.820279     0.751964
H     -2.048062      2.212084    -1.298449
H     -1.745280      2.739104     1.330440
C     -2.439700      0.777823     1.291269
C     -2.654413     -0.541791     0.594734
H     -2.836062      0.857778     2.301314
H     -3.735244     -0.730605     0.577800
C     -2.056771     -1.710264     1.380246
C     -2.587310     -2.992733     1.228581
C     -1.020909     -1.529834     2.296200
C     -2.076545     -4.066856     1.945573
H     -3.410832     -3.153630     0.540460
C     -0.509231     -2.601797     3.017094
H     -0.609643     -0.537636     2.448632
C     -1.030575     -3.876989     2.840467
H     -2.503181     -5.055759     1.807594
H      0.301778     -2.437185     3.719816
H     -0.629464     -4.714866     3.401951
C      0.352437     -0.256222    -0.541454
H      0.113174     -1.045798     0.169466
H      0.898863     -0.729597    -1.360501
C     -0.941666      0.393351    -1.133874
C     -2.235598     -0.406482    -0.901067
H     -0.800189      0.455618    -2.218724
H     -3.044454      0.178624    -1.355080
C     -2.344547     -1.736301    -1.618554
O     -3.394175     -2.288233    -1.839422
O     -1.169951     -2.264939    -2.013094
H     -1.383729     -3.099773    -2.455138
49
 -1042.11943246 -1041.74649800  4.50 4.87
C      1.664148     -1.464735     1.443723
C      2.300904     -1.327350     2.857050
H      1.531715     -2.543473     1.278616
H      2.727450     -0.329153     2.992548
C      3.240174     -2.399682     3.310126
C      2.772146     -3.536285     3.828774
H      4.308914     -2.253364     3.174920
H      3.451696     -4.330058     4.126168
C      1.327348     -3.753651     4.007320
C      0.436491     -2.779014     3.810753
H      0.994771     -4.739973     4.320131
H     -0.623680     -2.971931     3.960906
C      0.838990     -1.386728     3.420056
C      0.370617     -0.907158     2.018619
H      0.611181     -0.691362     4.235797
H      0.441782      0.183806     2.042901
C      2.007237     -0.805081     0.130372
H      2.938301     -1.177705    -0.312195
H      2.111989      0.277542     0.247847
C      0.830557     -1.140810    -0.828235
C      1.030714     -0.472038    -2.161941
H      0.907885     -2.225033    -0.997099
H      1.976217     -0.677361    -2.661536
C      0.166778      0.348985    -2.742469
C     -1.188537      0.684010    -2.151603
H      0.421972      0.786053    -3.702069
H     -1.881055     -0.092033    -2.514985
C     -1.774273      1.999048    -2.660488
C     -1.742302      2.267860    -4.032105
C     -2.416607      2.921199    -1.835171
C     -2.294604      3.427534    -4.554944
H     -1.288332      1.551803    -4.709948
C     -2.971526      4.086859    -2.356215
H     -2.506543      2.750850    -0.769043
C     -2.908267      4.351352    -3.715492
H     -2.248668      3.608869    -5.624594
H     -3.459587      4.788627    -1.686440
H     -3.339736      5.261228    -4.120270
C     -0.832185     -1.318247     1.200016
H     -1.766103     -0.880799     1.568806
H     -0.943570     -2.407924     1.242565
C     -0.612645     -0.903745    -0.284990
C     -1.173187      0.504882    -0.621287
H     -1.248340     -1.567744    -0.884722
H     -2.203079      0.522941    -0.254811
C     -0.507139      1.635146     0.141021
O     -0.898933      2.043006     1.207511
O      0.556808      2.178474    -0.474927
H      0.862113      2.902356     0.091033
