49
 -1042.13184971 -1041.75963500  0.00 0.00
C      1.648526     -0.558858     2.278700
C      1.714486      0.105291     3.680150
H      1.761129     -1.639862     2.447955
H      2.363347     -0.410390     4.397010
C      2.005416      1.577881     3.697629
C      1.124858      2.475841     4.144943
H      2.986432      1.899493     3.354593
H      1.388278      3.529982     4.170556
C     -0.209435      2.085129     4.628208
C     -0.654436      0.834962     4.490472
H     -0.828812      2.844737     5.096794
H     -1.644854      0.559123     4.843716
C      0.180889     -0.197241     3.802166
C      0.161157     -0.234804     2.247037
H      0.016031     -1.196816     4.215176
H      0.053688      0.812388     1.932135
C      2.316651     -0.218566     0.965316
H      3.385058     -0.463001     0.946718
H      2.215453      0.849873     0.738956
C      1.568327     -1.059768    -0.096901
C      2.160560     -0.897600    -1.472406
H      1.721567     -2.113461     0.192641
H      3.235986     -0.737054    -1.527178
C      1.460120     -0.969629    -2.596752
C     -0.027294     -1.205863    -2.647985
H      1.958128     -0.837824    -3.554695
H     -0.208996     -2.038465    -3.337588
C     -0.758530      0.004326    -3.222356
C     -0.390043      1.307703    -2.892895
C     -1.826451     -0.182666    -4.098188
C     -1.077161      2.394361    -3.418690
H      0.454727      1.475662    -2.232852
C     -2.518558      0.900782    -4.624271
H     -2.121392     -1.191543    -4.374218
C     -2.146721      2.195325    -4.283813
H     -0.773914      3.402291    -3.152248
H     -3.347841      0.731717    -5.304279
H     -2.683611      3.045156    -4.693320
C     -0.605447     -1.104978     1.275249
H     -1.670047     -0.867005     1.252090
H     -0.495270     -2.167843     1.533469
C      0.033817     -0.823223    -0.107674
C     -0.559760     -1.653059    -1.252275
H     -0.151249      0.234601    -0.328718
H     -0.254612     -2.698038    -1.119581
C     -2.074678     -1.640603    -1.285428
O     -2.798792     -0.788436    -0.844532
O     -2.561272     -2.731732    -1.924844
H     -3.525456     -2.638294    -1.937992
49
 -1042.13052185 -1041.75793400  0.83 1.07
C      1.910539     -0.924450     1.927660
C      2.018990     -0.646690     3.450962
H      2.175724     -1.983240     1.791585
H      2.792510     -1.228566     3.964676
C      2.116653      0.796856     3.851385
C      1.171938      1.404855     4.572320
H      3.011902      1.339736     3.555925
H      1.297538      2.443022     4.868442
C     -0.049966      0.706480     5.003234
C     -0.339858     -0.516685     4.556211
H     -0.716483      1.216052     5.693372
H     -1.248862     -1.020518     4.874999
C      0.555109     -1.196449     3.569143
C      0.397335     -0.828140     2.066306
H      0.559896     -2.282253     3.703086
H      0.126726      0.236682     2.054237
C      2.406115     -0.159773     0.720563
H      3.490470     -0.232142     0.577735
H      2.150503      0.904114     0.797195
C      1.676210     -0.795950    -0.487286
C      2.118193     -0.200734    -1.798566
H      1.983227     -1.855508    -0.500532
H      3.156684      0.119213    -1.865373
C      1.334751     -0.079155    -2.862126
C     -0.110650     -0.502871    -2.895510
H      1.726121      0.364624    -3.774751
H     -0.249974     -1.153300    -3.767164
C     -1.032212      0.696783    -3.097486
C     -0.791257      1.917934    -2.469872
C     -2.147695      0.582735    -3.925862
C     -1.647247      2.995056    -2.660695
H      0.083518      2.032508    -1.837922
C     -3.007248      1.657207    -4.117736
H     -2.349196     -0.361202    -4.425095
C     -2.760141      2.868457    -3.483725
H     -1.442611      3.939154    -2.165053
H     -3.870699      1.547003    -4.766666
H     -3.428491      3.710767    -3.632006
C     -0.334106     -1.518549     0.935460
H     -1.418635     -1.457389     1.044054
H     -0.057072     -2.580738     0.884319
C      0.129576     -0.787167    -0.350276
C     -0.460488     -1.364024    -1.644196
H     -0.199521      0.254885    -0.260397
H     -0.021767     -2.353479    -1.813343
C     -1.957443     -1.600574    -1.641814
O     -2.500405     -2.472930    -2.271914
O     -2.656196     -0.710513    -0.908012
H     -3.592002     -0.921138    -1.039493
49
 -1042.11927096 -1041.74812500  7.89 7.22
C      2.662911      0.460132     1.027830
C      3.600721      0.863546     2.197044
H      2.949268     -0.563449     0.744511
H      4.602389      0.421852     2.148750
C      3.705290      2.334543     2.477560
C      3.284693      2.876478     3.622671
H      4.169668      2.958131     1.716672
H      3.408757      3.941884     3.798060
C      2.661665      2.069392     4.684047
C      2.346011      0.788883     4.482000
H      2.459236      2.545320     5.639396
H      1.879095      0.203780     5.270259
C      2.581918      0.149254     3.150821
C      1.522081      0.374174     2.034965
H      2.821784     -0.913961     3.245971
H      1.136944      1.390695     2.194248
C      2.247219      1.196083    -0.227006
H      3.047562      1.268048    -0.972314
H      1.923351      2.216320     0.013426
C      1.067976      0.387043    -0.808766
C      0.457775      1.002401    -2.043692
H      1.473579     -0.601083    -1.078377
H      0.874725      1.922225    -2.445328
C     -0.612915      0.428795    -2.577385
C     -1.115913     -0.845847    -1.933967
H     -1.138806      0.851086    -3.425098
H     -0.300900     -1.580246    -2.017621
C     -2.307719     -1.486343    -2.630852
C     -3.339372     -2.122988    -1.943115
C     -2.343906     -1.508194    -4.026368
C     -4.386314     -2.734846    -2.624822
H     -3.347783     -2.155299    -0.858833
C     -3.385019     -2.118880    -4.711176
H     -1.537240     -1.048002    -4.589061
C     -4.418238     -2.732818    -4.011790
H     -5.179700     -3.217335    -2.061676
H     -3.387441     -2.117496    -5.797078
H     -5.235108     -3.209602    -4.544015
C      0.389681     -0.497830     1.541915
H     -0.448188     -0.554477     2.244177
H      0.740090     -1.521717     1.354044
C     -0.078080      0.156171     0.221910
C     -1.285943     -0.603917    -0.420479
H     -0.429958      1.163907     0.482969
H     -1.394316     -1.564379     0.090665
C     -2.530664      0.207552    -0.132478
O     -3.052767      0.997835    -0.870410
O     -2.994367     -0.025753     1.120663
H     -3.763733      0.548930     1.247131
49
 -1042.11871470 -1041.74743600  8.24 7.65
C      1.324202     -0.203383     2.593250
C      1.356242      0.107529     4.113672
H      1.374306     -1.298416     2.501732
H      1.939472     -0.602833     4.710331
C      1.727443      1.513011     4.488183
C      0.876829      2.338559     5.101949
H      2.741090      1.839759     4.266362
H      1.197073      3.338023     5.384343
C     -0.499571      1.934985     5.431621
C     -1.005629      0.782653     4.988720
H     -1.098548      2.603873     6.043164
H     -2.026217      0.497703     5.231433
C     -0.195480     -0.114151     4.107785
C     -0.143280      0.209170     2.587142
H     -0.435840     -1.169286     4.268784
H     -0.186031      1.304501     2.514552
C      2.079186      0.402401     1.431392
H      3.138367      0.121775     1.408241
H      2.026115      1.497592     1.468411
C      1.377192     -0.118019     0.157918
C      1.926126      0.481040    -1.113201
H      1.538773     -1.207452     0.133072
H      2.760722      1.175374    -1.058685
C      1.333730      0.196810    -2.265550
C      0.185945     -0.789940    -2.247457
H      1.642467      0.651467    -3.199030
H      0.611581     -1.742107    -1.896127
C     -0.415706     -1.105657    -3.610821
C      0.419617     -1.182364    -4.727514
C     -1.766220     -1.407894    -3.786296
C     -0.079022     -1.515871    -5.979130
H      1.482406     -0.991408    -4.617636
C     -2.269612     -1.741503    -5.039575
H     -2.452553     -1.395433    -2.947263
C     -1.431606     -1.791786    -6.143903
H      0.594372     -1.563651    -6.829683
H     -3.326560     -1.966764    -5.146538
H     -1.824628     -2.051082    -7.121777
C     -0.893450     -0.384272     1.416896
H     -1.946597     -0.086918     1.378924
H     -0.856985     -1.481306     1.450594
C     -0.160563      0.132920     0.158095
C     -0.831950     -0.392587    -1.150321
H     -0.264895      1.226773     0.164826
H     -1.433181     -1.268772    -0.896335
C     -1.829992      0.661113    -1.578875
O     -2.981407      0.693638    -1.222514
O     -1.295268      1.614225    -2.367211
H     -2.002456      2.247965    -2.555947
