49
 -1042.13034241 -1041.75810900  0.00 0.00
C      1.019601      0.165449     2.021097
C      1.208480     -0.806198     3.217261
H      1.813727     -0.068694     1.298533
H      2.249225     -1.086391     3.415157
C      0.536322     -0.408079     4.499141
C     -0.448687     -1.125729     5.043737
H      0.900442      0.486682     4.999472
H     -0.885928     -0.819071     5.990336
C     -0.965723     -2.348111     4.407704
C     -0.580022     -2.703718     3.180958
H     -1.677192     -2.954035     4.961670
H     -0.974638     -3.604036     2.716766
C      0.363215     -1.843475     2.401784
C     -0.224174     -0.624955     1.633265
H      1.007749     -2.436695     1.746356
H     -1.063528     -0.261304     2.242260
C      0.759145      1.652573     1.976478
H      1.632138      2.257911     2.246576
H     -0.048969      1.915994     2.668533
C      0.328412      1.982555     0.523200
C      1.511313      1.978209    -0.418017
H     -0.064915      3.009004     0.532056
H      2.469784      2.290030    -0.006214
C      1.438700      1.661866    -1.704238
C      0.170835      1.274687    -2.418760
H      2.335802      1.711342    -2.317793
H      0.045566      1.998740    -3.233405
C      0.241841     -0.092320    -3.091770
C      1.263249     -1.005448    -2.843906
C     -0.741825     -0.440335    -4.020107
C      1.293233     -2.236753    -3.491063
H      2.046946     -0.754131    -2.136843
C     -0.717223     -1.667480    -4.667305
H     -1.538060      0.265174    -4.244077
C      0.302739     -2.574977    -4.402291
H      2.098156     -2.933721    -3.278654
H     -1.493729     -1.914145    -5.385056
H      0.326963     -3.535906    -4.906114
C     -0.556139     -0.449836     0.170457
H     -1.449285     -1.004146    -0.139322
H      0.274236     -0.793924    -0.449975
C     -0.800238      1.065739    -0.025401
C     -1.069439      1.415996    -1.507074
H     -1.713454      1.300849     0.533984
H     -1.862820      0.751414    -1.864235
C     -1.632394      2.821662    -1.595100
O     -1.081655      3.788597    -2.052030
O     -2.880339      2.888833    -1.074660
H     -3.167442      3.810302    -1.153368
49
 -1042.12976821 -1041.75761400  0.36 0.31
C      1.151760      0.364343     1.984586
C      1.480389     -0.502340     3.230363
H      1.895838      0.106297     1.218054
H      2.545411     -0.724557     3.361514
C      0.895518     -0.032505     4.530549
C     -0.008341     -0.743974     5.207695
H      1.256333      0.912845     4.930085
H     -0.382119     -0.381764     6.161829
C     -0.517681     -2.032080     4.710129
C     -0.215609     -2.466729     3.485447
H     -1.153790     -2.620696     5.365200
H     -0.604512     -3.415519     3.124383
C      0.621456     -1.633305     2.568123
C     -0.080613     -0.503073     1.761899
H      1.238254     -2.250181     1.907841
H     -0.884848     -0.125969     2.408782
C      0.816839      1.830511     1.849769
H      1.677350      2.492229     2.002590
H      0.053617      2.112719     2.584115
C      0.257576      2.031822     0.416705
C      1.363464      2.013672    -0.610458
H     -0.193656      3.029719     0.385138
H      2.333502      2.398898    -0.299185
C      1.215019      1.600107    -1.862893
C     -0.077426      1.101904    -2.452972
H      2.060844      1.645490    -2.545791
H     -0.305320      1.759481    -3.300103
C      0.025278     -0.293170    -3.061348
C      1.091616     -1.152280    -2.814908
C     -0.986682     -0.720270    -3.923641
C      1.139930     -2.412721    -3.402761
H      1.894994     -0.836281    -2.157558
C     -0.943263     -1.976906    -4.510445
H     -1.816995     -0.051966    -4.138110
C      0.122880     -2.831194    -4.249299
H      1.979472     -3.068910    -3.194857
H     -1.740813     -2.288639    -5.178049
H      0.161656     -3.814739    -4.706499
C     -0.535795     -0.456845     0.323151
H     -1.424962     -1.069029     0.133963
H      0.256740     -0.819681    -0.336502
C     -0.862711      1.028060     0.024772
C     -1.263393      1.212981    -1.446412
H     -1.741864      1.282913     0.628522
H     -1.983114      0.426861    -1.703351
C     -2.033702      2.503333    -1.661084
O     -2.251387      3.361734    -0.846525
O     -2.520257      2.587026    -2.923301
H     -3.006881      3.422383    -2.979149
49
 -1042.12777642 -1041.75654900  1.61 0.98
C      0.094215     -1.464257    -1.427532
C      0.535746     -2.633780    -2.351785
H      0.543440     -1.662820    -0.446077
H      0.675928     -3.590504    -1.836081
C     -0.288781     -2.843228    -3.588200
C      0.206036     -2.675412    -4.816524
H     -1.316200     -3.175305    -3.456428
H     -0.417387     -2.870652    -5.685083
C      1.594062     -2.243297    -5.045619
C      2.371721     -1.856105    -4.033173
H      1.970454     -2.242426    -6.064673
H      3.392389     -1.528600    -4.214490
C      1.838473     -1.813128    -2.636503
C      1.039800     -0.552269    -2.196753
H      2.613152     -2.050126    -1.900865
H      0.521163     -0.183836    -3.090477
C     -1.275377     -0.837532    -1.236628
H     -1.768351     -1.213122    -0.334187
H     -1.939722     -1.059984    -2.078232
C     -1.101344      0.716042    -1.153154
C     -2.236009      1.323549    -0.370279
H     -1.165541      1.097609    -2.179538
H     -3.216262      1.331013    -0.843480
C     -2.105560      1.812727     0.856653
C     -0.798700      1.861938     1.607895
H     -2.969108      2.231717     1.367929
H     -0.424844      2.892908     1.557421
C     -0.957599      1.502437     3.074768
C     -1.741817      0.416649     3.464358
C     -0.290635      2.231804     4.056725
C     -1.858076      0.069355     4.803875
H     -2.271594     -0.157861     2.709563
C     -0.403999      1.886490     5.398393
H      0.328541      3.076117     3.766756
C     -1.188525      0.803963     5.776362
H     -2.473498     -0.778156     5.090184
H      0.122030      2.467115     6.150110
H     -1.278627      0.532989     6.823544
C      1.502321      0.605323    -1.336526
H      1.991294      1.388630    -1.922672
H      2.245535      0.247218    -0.615822
C      0.260862      1.197343    -0.586537
C      0.267265      0.966175     0.936495
H      0.282914      2.284520    -0.722371
H      0.051553     -0.081311     1.164419
C      1.618106      1.315029     1.521656
O      2.118979      2.410508     1.487532
O      2.229215      0.260749     2.101428
H      3.072358      0.583789     2.453624
49
 -1042.12555137 -1041.75504700  3.01 1.92
C     -1.659479     -2.167972    -0.005939
C     -2.166109     -3.430919    -0.753540
H     -0.888670     -2.514518     0.696077
H     -2.150430     -4.349504    -0.156254
C     -3.490728     -3.296942    -1.447064
C     -3.616150     -3.381671    -2.773345
H     -4.370851     -3.153848    -0.823844
H     -4.598838     -3.311400    -3.232323
C     -2.455172     -3.586042    -3.654468
C     -1.209996     -3.536670    -3.177719
H     -2.637181     -3.773778    -4.708895
H     -0.358946     -3.680839    -3.838516
C     -0.960489     -3.231323    -1.735061
C     -0.965982     -1.740212    -1.292797
H     -0.068125     -3.740654    -1.359235
H     -1.709733     -1.241804    -1.929891
C     -2.403671     -1.014072     0.625688
H     -2.911631     -1.280811     1.559604
H     -3.163834     -0.631463    -0.064669
C     -1.351284      0.085426     0.909138
C     -0.452376     -0.273416     2.070302
H     -1.890942      1.003268     1.181366
H     -0.677742     -1.152135     2.668804
C      0.579844      0.506732     2.362538
C      0.813838      1.762733     1.558356
H      1.230308      0.298691     3.206629
H      0.047662      2.488991     1.852753
C      2.165391      2.400905     1.810415
C      3.329627      1.632019     1.800764
C      2.273547      3.773124     2.025017
C      4.571352      2.218181     2.007008
H      3.263029      0.560230     1.631844
C      3.514880      4.363491     2.231790
H      1.375890      4.383708     2.016778
C      4.667810      3.588454     2.224776
H      5.467047      1.604304     1.996936
H      3.580097      5.434523     2.398520
H      5.637383      4.048877     2.386255
C      0.167698     -0.780619    -1.022674
H      0.680225     -0.451069    -1.933038
H      0.915725     -1.239443    -0.364339
C     -0.469881      0.445444    -0.325409
C      0.628844      1.493450     0.045664
H     -1.142338      0.900193    -1.064496
H      1.578463      1.126043    -0.352926
C      0.325139      2.784720    -0.680003
O     -0.242722      3.743307    -0.223387
O      0.730443      2.737940    -1.969303
H      0.469056      3.576368    -2.377891
49
 -1042.12582053 -1041.75483300  2.84 2.06
C      1.385859     -1.505691     0.121631
C      2.697751     -2.338525     0.170154
H      1.611178     -0.546995     0.606513
H      3.330212     -2.137027     1.042112
C      2.543385     -3.820530    -0.009584
C      3.049775     -4.471994    -1.058863
H      2.023451     -4.369708     0.772298
H      2.942845     -5.551066    -1.132085
C      3.774917     -3.775199    -2.133333
C      3.826699     -2.442910    -2.178855
H      4.265352     -4.374737    -2.895035
H      4.356370     -1.937813    -2.982753
C      3.112164     -1.617472    -1.156512
C      1.598811     -1.330816    -1.375475
H      3.648929     -0.688681    -0.940462
H      1.185475     -2.205414    -1.892927
C     -0.038679     -1.914736     0.450045
H     -0.328776     -1.596983     1.456615
H     -0.162165     -3.002115     0.411118
C     -0.992719     -1.278981    -0.616751
C     -2.369105     -1.086547    -0.034302
H     -1.077965     -2.000494    -1.438590
H     -2.963174     -1.981772     0.140150
C     -2.869658      0.096756     0.298430
C     -2.142268      1.404868     0.099494
H     -3.869672      0.163683     0.720586
H     -2.576109      1.887797    -0.785055
C     -2.323219      2.351034     1.273342
C     -2.604690      3.697874     1.058522
C     -2.178871      1.898918     2.584694
C     -2.739096      4.576811     2.127271
H     -2.719413      4.064498     0.041975
C     -2.313478      2.772948     3.655321
H     -1.964872      0.849577     2.767796
C     -2.593697      4.116446     3.429723
H     -2.959787      5.623290     1.940168
H     -2.198945      2.404458     4.670224
H     -2.698342      4.799904     4.266442
C      0.943782     -0.059188    -1.874275
H      0.869583     -0.036176    -2.965713
H      1.554464      0.802181    -1.583371
C     -0.485492      0.048571    -1.241412
C     -0.643303      1.162690    -0.187548
H     -1.185700      0.290381    -2.049067
H     -0.149892      0.872116     0.743094
C      0.026532      2.450350    -0.610197
O      0.950466      2.974654    -0.046100
O     -0.520610      2.975588    -1.732101
H     -0.028296      3.786173    -1.927350
49
 -1042.12325453 -1041.75297800  4.45 3.22
C     -1.182492     -1.379851     2.073168
C     -2.135832     -2.497496     2.575999
H     -0.163884     -1.786556     2.141857
H     -1.709754     -3.143827     3.351584
C     -3.510874     -2.052932     2.982431
C     -4.610563     -2.444508     2.334953
H     -3.592073     -1.410303     3.856461
H     -5.589375     -2.124585     2.682565
C     -4.549309     -3.322271     1.155239
C     -3.382891     -3.635465     0.588166
H     -5.481837     -3.706952     0.752011
H     -3.349059     -4.278092    -0.287971
C     -2.104386     -3.067010     1.116304
C     -1.699685     -1.635051     0.663200
H     -1.267663     -3.760526     0.990046
H     -2.639927     -1.080409     0.538758
C     -1.135229      0.099005     2.376761
H     -0.765802      0.327656     3.383075
H     -2.137978      0.532190     2.288946
C     -0.194917      0.740958     1.328420
C      1.263496      0.464537     1.613859
H     -0.333306      1.829306     1.388096
H      1.543941     -0.053451     2.527096
C      2.181192      0.898882     0.759175
C      1.730371      1.657432    -0.467753
H      3.243273      0.759131     0.934849
H      1.350891      2.629013    -0.132308
C      2.834844      1.917172    -1.471387
C      3.680546      0.888759    -1.887749
C      3.007225      3.185193    -2.021225
C      4.676324      1.123592    -2.826476
H      3.559536     -0.107897    -1.471654
C      4.002338      3.424897    -2.962148
H      2.351355      3.994049    -1.711504
C      4.840909      2.394560    -3.367323
H      5.326023      0.311493    -3.138844
H      4.121672      4.420538    -3.378614
H      5.618746      2.578709    -4.101608
C     -0.711111     -1.171581    -0.378507
H     -1.049916     -1.339186    -1.406943
H      0.246926     -1.691277    -0.255102
C     -0.517677      0.347622    -0.149143
C      0.560917      0.890597    -1.136894
H     -1.479115      0.820145    -0.386519
H      0.993506      0.040198    -1.667932
C     -0.101108      1.723136    -2.209567
O     -0.293498      1.378048    -3.345758
O     -0.507027      2.931786    -1.748992
H     -0.937743      3.380623    -2.491096
