49
 -1042.13457720 -1041.76268500  0.00 0.00
C     -1.426781      1.831455     0.842966
C     -1.904004      3.057430     0.013646
H     -1.383411      2.178667     1.884948
H     -2.236289      2.745382    -0.980792
C     -2.871534      4.004547     0.650292
C     -2.439980      4.954474     1.481720
H     -3.933569      3.885153     0.450810
H     -3.142659      5.622023     1.972350
C     -1.006003      5.122367     1.768451
C     -0.067522      4.452677     1.095128
H     -0.720795      5.826430     2.545786
H      0.984103      4.604542     1.328009
C     -0.400959      3.502079    -0.017622
C     -0.041747      2.011708     0.235265
H     -0.038919      3.900630    -0.971907
H     -0.025797      1.534439    -0.753110
C     -1.864942      0.386442     0.834058
H     -2.850406      0.230655     1.287726
H     -1.913722     -0.005036    -0.189360
C     -0.795082     -0.384947     1.659170
C     -1.091851     -1.862499     1.664952
H     -0.892492     -0.022915     2.692466
H     -1.973377     -2.182785     2.217451
C     -0.359307     -2.771135     1.032717
C      0.882580     -2.446476     0.241172
H     -0.636467     -3.821393     1.085186
H      1.754516     -2.703677     0.855976
C      0.971904     -3.250407    -1.044780
C     -0.145614     -3.414110    -1.863615
C      2.182498     -3.811081    -1.446015
C     -0.055476     -4.123022    -3.054325
H     -1.097373     -2.986386    -1.560742
C      2.276375     -4.520881    -2.637387
H      3.062242     -3.681746    -0.822374
C      1.157402     -4.679472    -3.445430
H     -0.935159     -4.241761    -3.679663
H      3.227963     -4.951656    -2.933753
H      1.228917     -5.233555    -4.376046
C      1.021917      1.382190     1.105038
H      2.038826      1.514406     0.721462
H      0.999962      1.830956     2.104786
C      0.674769     -0.125713     1.229533
C      0.964685     -0.934035    -0.053199
H      1.315597     -0.551781     2.011652
H      0.237300     -0.685642    -0.829612
C      2.344591     -0.607523    -0.579970
O      3.379175     -0.910182    -0.040987
O      2.312680      0.084074    -1.738333
H      3.233235      0.247093    -1.993695
49
 -1042.13276486 -1041.76100800  1.14 1.05
C     -1.603229      1.527043     1.140536
C     -1.895246      3.006819     0.761806
H     -1.787302      1.457041     2.221976
H     -2.002825      3.113952    -0.321543
C     -2.981846      3.721803     1.501019
C     -2.744773      4.257272     2.699782
H     -3.974921      3.768924     1.061058
H     -3.539955      4.747255     3.254490
C     -1.407711      4.193428     3.311992
C     -0.342717      3.750976     2.639174
H     -1.300705      4.532992     4.338906
H      0.632834      3.722410     3.119481
C     -0.423060      3.312021     1.205976
C     -0.120410      1.811701     0.939951
H      0.135323      4.007128     0.569160
H      0.114813      1.736195    -0.129639
C     -2.023504      0.228833     0.494301
H     -3.082632     -0.007501     0.648141
H     -1.850889      0.253192    -0.588356
C     -1.152981     -0.876947     1.157833
C     -1.436299     -2.218764     0.532005
H     -1.474611     -0.925597     2.207834
H     -2.417595     -2.649752     0.722293
C     -0.579173     -2.879243    -0.236508
C      0.808866     -2.384217    -0.564068
H     -0.856773     -3.845198    -0.651815
H      1.513437     -2.926503     0.078430
C      1.193108     -2.662830    -2.006668
C      0.311013     -2.375547    -3.048061
C      2.446796     -3.183207    -2.317839
C      0.674329     -2.603304    -4.368818
H     -0.672850     -1.974811    -2.820126
C      2.815060     -3.412195    -3.638778
H      3.144486     -3.410326    -1.516520
C      1.929316     -3.122481    -4.668764
H     -0.024565     -2.374685    -5.167700
H      3.796521     -3.819389    -3.861893
H      2.213753     -3.300051    -5.701111
C      0.731915      0.823072     1.701675
H      1.806363      1.012517     1.610454
H      0.490912      0.866109     2.770197
C      0.374641     -0.591275     1.168696
C      0.934106     -0.880390    -0.240518
H      0.827462     -1.327253     1.844731
H      0.371646     -0.317431    -0.988314
C      2.364083     -0.411478    -0.386552
O      2.732862      0.494441    -1.086653
O      3.226501     -1.118745     0.382561
H      4.106428     -0.745998     0.225790
49
 -1042.12321864 -1041.75247500  7.13 6.41
C     -2.319978     -0.928718    -0.179398
C     -2.752285     -2.096683    -1.111564
H     -2.779209     -0.017740    -0.583863
H     -2.600520     -3.058619    -0.612588
C     -4.097808     -2.021389    -1.761729
C     -4.269372     -1.326907    -2.887627
H     -4.940769     -2.513037    -1.282220
H     -5.252180     -1.243228    -3.342779
C     -3.139708     -0.648199    -3.543057
C     -1.879792     -0.820050    -3.136589
H     -3.355021     -0.003278    -4.390962
H     -1.067894     -0.310885    -3.650852
C     -1.517327     -1.732776    -2.001712
C     -0.911845     -1.041979    -0.747631
H     -0.934190     -2.580362    -2.378640
H     -0.371101     -1.810797    -0.181169
C     -2.313959     -0.881548     1.336263
H     -3.237716     -0.443599     1.727310
H     -2.241400     -1.892547     1.753108
C     -1.079328     -0.044853     1.801529
C      0.046037     -0.900547     2.333486
H     -1.416840      0.573667     2.643580
H     -0.217247     -1.859685     2.775082
C      1.317346     -0.521377     2.333635
C      1.817300      0.802570     1.818948
H      2.070907     -1.177613     2.763720
H      2.263411      1.314699     2.680299
C      2.942014      0.663156     0.799167
C      3.753484      1.767323     0.531105
C      3.207745     -0.528204     0.128410
C      4.792842      1.688657    -0.385128
H      3.569027      2.703094     1.053045
C      4.249070     -0.612364    -0.790236
H      2.590214     -1.399449     0.321534
C      5.044614      0.494558    -1.052112
H      5.411492      2.560454    -0.575467
H      4.436259     -1.550556    -1.303649
H      5.856722      0.427445    -1.768923
C     -0.163410      0.270215    -0.642532
H      0.913851      0.129404    -0.736954
H     -0.467223      0.954055    -1.442379
C     -0.532347      0.931435     0.723291
C      0.670498      1.710867     1.307877
H     -1.321837      1.662203     0.520589
H      1.052926      2.369211     0.521005
C      0.180282      2.622330     2.415621
O      0.369127      2.484520     3.595958
O     -0.541546      3.655789     1.922973
H     -0.833310      4.181340     2.682226
49
 -1042.12264444 -1041.75154300  7.49 6.99
C     -0.031373     -1.988943     1.645043
C      1.069821     -2.329619     2.689941
H      0.010715     -2.772858     0.878286
H      0.890044     -1.788629     3.623918
C      1.383962     -3.770649     2.941925
C      2.222008     -4.432464     2.142548
H      0.890391     -4.279081     3.766649
H      2.425045     -5.487363     2.303949
C      2.889780     -3.760412     1.016110
C      2.812981     -2.440040     0.834965
H      3.470265     -4.371270     0.329729
H      3.327579     -1.975118    -0.002836
C      2.064698     -1.540519     1.774682
C      0.823810     -0.820316     1.175922
H      2.767391     -0.878365     2.292685
H      0.608547      0.042909     1.818577
C     -1.468625     -1.570470     1.886466
H     -2.145507     -2.430420     1.866724
H     -1.574257     -1.106946     2.874118
C     -1.877723     -0.538177     0.787275
C     -1.915575      0.881562     1.296138
H     -2.898142     -0.790071     0.480253
H     -2.114015      1.035219     2.355333
C     -1.768062      1.943706     0.513755
C     -1.559869      1.891538    -0.977035
H     -1.838503      2.940327     0.944060
H     -2.436446      2.374271    -1.425289
C     -0.373689      2.725395    -1.449234
C     -0.312985      3.101701    -2.792344
C      0.648264      3.135386    -0.597871
C      0.744200      3.860699    -3.274024
H     -1.109616      2.792417    -3.464170
C      1.709188      3.897893    -1.076758
H      0.618683      2.853122     0.449673
C      1.762071      4.262161    -2.415162
H      0.771696      4.144309    -4.321802
H      2.497755      4.206159    -0.397170
H      2.590145      4.856824    -2.787480
C      0.525821     -0.455761    -0.263746
H      0.865127      0.554331    -0.500761
H      1.042631     -1.135083    -0.950201
C     -1.011589     -0.607041    -0.500061
C     -1.498151      0.428488    -1.525160
H     -1.182783     -1.594118    -0.941188
H     -0.797229      0.427926    -2.368510
C     -2.822944      0.026509    -2.147121
O     -3.501035     -0.924177    -1.856992
O     -3.177110      0.866266    -3.150516
H     -4.017389      0.538792    -3.503294
