49
 -1042.12668184 -1041.75437400  0.00 0.00
C      1.043404     -0.309548     2.727422
C      0.175787     -0.856185     3.894504
H      2.086589     -0.560599     2.971120
H      0.671372     -0.847778     4.871912
C     -1.200014     -0.269270     4.016876
C     -2.306692     -0.996554     3.848899
H     -1.274322      0.784223     4.277815
H     -3.283706     -0.538056     3.977330
C     -2.254482     -2.426450     3.503836
C     -1.100937     -3.018478     3.189035
H     -3.183402     -2.989789     3.505590
H     -1.074992     -4.073321     2.927202
C      0.169284     -2.230160     3.140879
C      0.474051     -1.416695     1.850407
H      1.034981     -2.834213     3.429781
H     -0.501463     -1.083750     1.482490
C      1.018875      1.017824     2.008002
H      1.439611      1.838324     2.601338
H      0.001273      1.298345     1.729156
C      1.897663      0.830074     0.737908
C      1.872343      2.075568    -0.108849
H      2.925426      0.727633     1.117754
H      2.188776      2.992858     0.385477
C      1.497881      2.127702    -1.379789
C      1.083557      0.915013    -2.176065
H      1.533915      3.074177    -1.913375
H      1.988319      0.543984    -2.679404
C      0.075732      1.205691    -3.276173
C     -0.891778      2.199819    -3.143099
C      0.098683      0.449140    -4.447382
C     -1.810875      2.432362    -4.158531
H     -0.934626      2.782211    -2.229638
C     -0.821495      0.675716    -5.463060
H      0.850297     -0.327464    -4.567740
C     -1.780879      1.671371    -5.321244
H     -2.558269      3.210903    -4.038189
H     -0.787293      0.075285    -6.367095
H     -2.501755      1.853979    -6.111960
C      1.388933     -1.747310     0.694643
H      0.981567     -2.522854     0.036815
H      2.343749     -2.121970     1.084008
C      1.652821     -0.450561    -0.123014
C      0.624700     -0.244008    -1.261398
H      2.595038     -0.608737    -0.664553
H      0.608664     -1.160098    -1.858667
C     -0.797629     -0.039021    -0.780456
O     -1.248759      0.955097    -0.275791
O     -1.560026     -1.137070    -0.992745
H     -2.449898     -0.927358    -0.671984
49
 -1042.12384668 -1041.75117100  1.78 2.01
C     -1.695656     -2.375282    -0.199373
C     -2.398170     -2.790894    -1.520942
H     -1.555696     -3.298716     0.382197
H     -3.073142     -3.649096    -1.426307
C     -3.081450     -1.687236    -2.274263
C     -2.684674     -1.295524    -3.487083
H     -3.945958     -1.221164    -1.806368
H     -3.227719     -0.513090    -4.010707
C     -1.526686     -1.903439    -4.162301
C     -0.729030     -2.762374    -3.524891
H     -1.332222     -1.629792    -5.195505
H      0.128901     -3.198724    -4.030337
C     -0.970533     -3.100644    -2.088092
C     -0.430875     -2.119664    -1.007872
H     -0.676823     -4.129204    -1.856697
H     -0.507291     -1.125596    -1.459231
C     -1.968621     -1.239899     0.757510
H     -2.861739     -1.398101     1.373630
H     -2.101675     -0.297874     0.222910
C     -0.730427     -1.167240     1.695898
C     -0.848968     -0.004299     2.645311
H     -0.791944     -2.078937     2.308925
H     -1.735496      0.006164     3.277947
C      0.033691      0.978630     2.763631
C      1.319564      1.049712     1.978241
H     -0.127457      1.757090     3.505499
H      2.095165      0.596942     2.613677
C      1.796521      2.462020     1.675728
C      3.155504      2.691313     1.461358
C      0.918090      3.539337     1.582834
C      3.628047      3.962163     1.161235
H      3.855109      1.862057     1.532082
C      1.386848      4.813768     1.287369
H     -0.143334      3.375886     1.732640
C      2.742651      5.030328     1.073746
H      4.689959      4.118510     0.997472
H      0.686749      5.641047     1.218742
H      3.106887      6.025766     0.840052
C      0.812863     -2.214621    -0.155274
H      1.728784     -2.001454    -0.716494
H      0.903782     -3.232718     0.243011
C      0.682736     -1.218865     1.032968
C      1.280593      0.170915     0.705592
H      1.345229     -1.589253     1.826567
H      2.311495      0.002415     0.382580
C      0.665716      0.872575    -0.487733
O      1.177696      0.923183    -1.577409
O     -0.521721      1.460228    -0.236323
H     -0.785278      1.903652    -1.056145
49
 -1042.12101153 -1041.74847000  3.56 3.70
C     -0.330049     -2.096968    -1.797416
C      0.595537     -2.069769    -3.046477
H     -0.131599     -3.038950    -1.269222
H      0.829635     -3.057492    -3.459526
C      0.176755     -1.147751    -4.153989
C      0.899758     -0.085769    -4.516122
H     -0.738462     -1.390091    -4.689739
H      0.574388      0.535992    -5.346048
C      2.152741      0.273415    -3.833207
C      2.542166     -0.363828    -2.727768
H      2.753777      1.076606    -4.250073
H      3.464831     -0.083728    -2.225511
C      1.692586     -1.437691    -2.126323
C      0.536679     -1.009549    -1.177458
H      2.300860     -2.217059    -1.657150
H      0.172629     -0.037923    -1.534155
C     -1.804656     -1.761551    -1.693786
H     -2.427968     -2.657456    -1.780600
H     -2.102483     -1.088566    -2.504000
C     -2.060433     -1.056656    -0.323137
C     -2.296575      0.428049    -0.475051
H     -2.995585     -1.473231     0.076900
H     -2.737080      0.765531    -1.411083
C     -2.047653      1.326728     0.470071
C     -1.479656      1.005887     1.829692
H     -2.266556      2.375284     0.279371
H     -2.201684      1.368587     2.572472
C     -0.193122      1.783900     2.109265
C      0.166669      2.077433     3.425210
C      0.618984      2.263565     1.082704
C      1.319583      2.797050     3.710171
H     -0.468476      1.744873     4.240027
C      1.771950      2.986842     1.362696
H      0.345308      2.070403     0.050950
C      2.131738      3.251093     2.678049
H      1.579579      3.008462     4.742951
H      2.391730      3.344494     0.546238
H      3.033917      3.813817     2.896109
C      0.496567     -1.061652     0.333316
H      0.894012     -0.156645     0.789485
H      1.110724     -1.885296     0.706996
C     -0.981256     -1.323563     0.768322
C     -1.422763     -0.542866     2.016881
H     -1.054225     -2.386643     1.026329
H     -2.459535     -0.836828     2.222889
C     -0.649824     -0.946381     3.254701
O      0.427046     -1.478842     3.291712
O     -1.341223     -0.658085     4.386268
H     -0.789294     -0.947182     5.128070
49
 -1042.12110125 -1041.74808800  3.50 3.94
C      0.735569     -0.898090     2.728726
C     -0.219399     -1.627046     3.714089
H      1.754714     -1.227042     2.981064
H      0.211961     -1.825470     4.701770
C     -1.585383     -1.024629     3.867168
C     -2.696282     -1.664348     3.494796
H     -1.650653     -0.039612     4.324309
H     -3.668023     -1.203652     3.652167
C     -2.656967     -3.001489     2.880885
C     -1.500240     -3.564108     2.526111
H     -3.597716     -3.519623     2.717295
H     -1.483357     -4.548843     2.065751
C     -0.210578     -2.828736     2.708013
C      0.196702     -1.792561     1.621687
H      0.619411     -3.508542     2.924145
H     -0.744191     -1.358144     1.272220
C      0.788816      0.540923     2.276282
H      1.178653      1.222223     3.041753
H     -0.200998      0.903512     1.987861
C      1.753056      0.570366     1.055497
C      1.798727      1.957375     0.472679
H      2.748723      0.360162     1.474174
H      2.041392      2.757799     1.169700
C      1.533480      2.265787    -0.788316
C      1.212079      1.229048    -1.845830
H      1.572409      3.305618    -1.094290
H      2.178256      0.892959    -2.254612
C      0.452338      1.793135    -3.043787
C     -0.631860      1.149162    -3.637769
C      0.902565      2.979155    -3.631102
C     -1.266869      1.689962    -4.752508
H     -1.002605      0.207485    -3.251666
C      0.274155      3.520790    -4.742296
H      1.770140      3.485946    -3.220064
C     -0.824190      2.880695    -5.307251
H     -2.113730      1.167289    -5.187349
H      0.646391      4.446188    -5.171526
H     -1.320953      3.302473    -6.175120
C      1.170477     -1.926099     0.474671
H      0.779367     -2.538388    -0.344982
H      2.086719     -2.412181     0.832494
C      1.532558     -0.507519    -0.053417
C      0.600309     -0.026604    -1.197833
H      2.506121     -0.603101    -0.551632
H      0.570036     -0.828845    -1.940119
C     -0.833537      0.198299    -0.755600
O     -1.281346      1.178626    -0.227149
O     -1.616188     -0.873477    -1.047302
H     -2.510055     -0.656831    -0.743786
49
 -1042.11948629 -1041.74657200  4.52 4.90
C     -0.606639      2.523979    -1.419470
C     -0.688148      3.937310    -0.779856
H     -0.328388      2.675908    -2.473087
H     -1.009418      4.728808    -1.466451
C     -1.460693      4.032599     0.503254
C     -0.886267      4.362698     1.662130
H     -2.531740      3.846895     0.458930
H     -1.488910      4.450487     2.562376
C      0.556922      4.631575     1.767931
C      1.378423      4.402562     0.741675
H      0.940304      5.016651     2.708645
H      2.444243      4.596260     0.833866
C      0.856047      3.825933    -0.535590
C      0.659939      2.284745    -0.611163
H      1.412929      4.189546    -1.404773
H      0.369476      1.984692     0.399089
C     -1.531692      1.333952    -1.335281
H     -2.462714      1.463017    -1.899756
H     -1.805741      1.122897    -0.298449
C     -0.742556      0.142237    -1.947183
C     -1.550933     -1.124359    -1.856429
H     -0.647071      0.387189    -3.015583
H     -2.547615     -1.086918    -2.293444
C     -1.151542     -2.245320    -1.272219
C      0.222371     -2.418659    -0.655451
H     -1.824723     -3.095918    -1.254131
H      0.881455     -2.762611    -1.468563
C      0.290341     -3.523974     0.395707
C     -0.294014     -4.762328     0.113398
C      0.977354     -3.392566     1.601851
C     -0.228917     -5.814969     1.013929
H     -0.800285     -4.914248    -0.834726
C      1.044200     -4.446725     2.508756
H      1.482367     -2.469689     1.860724
C      0.436849     -5.660152     2.225330
H     -0.697656     -6.762696     0.766443
H      1.581418     -4.311031     3.442714
H      0.488225     -6.480629     2.933898
C      1.542182      1.226693    -1.232154
H      2.429069      1.010728    -0.627390
H      1.892919      1.573107    -2.212469
C      0.715149     -0.076770    -1.435989
C      0.804845     -1.056009    -0.234002
H      1.212288     -0.633443    -2.241012
H      1.868890     -1.180755    -0.016145
C      0.241918     -0.499054     1.060359
O      0.900692      0.110896     1.867212
O     -1.061606     -0.757135     1.263255
H     -1.283549     -0.385407     2.129293
