49
 -1042.14412341 -1041.77237300  0.00 0.00
C      1.220276     -2.628331    -0.172848
C      1.387427     -3.008089     1.326470
H      1.463096     -3.418663    -0.890021
H      2.263753     -2.561211     1.810868
C      1.350355     -4.483419     1.597350
C      0.387557     -5.056058     2.323461
H      2.156394     -5.087453     1.186121
H      0.412982     -6.125380     2.515218
C     -0.718605     -4.275391     2.898468
C     -0.884888     -2.988705     2.588795
H     -1.402002     -4.775527     3.578760
H     -1.710235     -2.421359     3.012937
C      0.029545     -2.312563     1.616966
C     -0.296108     -2.441524     0.098738
H      0.175314     -1.262465     1.888036
H     -0.804382     -3.399865    -0.047367
C      1.934135     -1.327083    -0.552030
H      2.116341     -0.719026     0.344002
H      2.918653     -1.553384    -0.976464
C      1.108437     -0.487451    -1.531961
C      1.878049      0.696721    -2.052666
H      0.864519     -1.125647    -2.397885
H      2.919124      0.525084    -2.321480
C      1.359453      1.907060    -2.215421
C     -0.070144      2.259121    -1.891644
H      1.983205      2.718062    -2.584606
H     -0.482807      2.802701    -2.749306
C     -0.154474      3.200151    -0.693266
C     -1.084668      4.238162    -0.692067
C      0.675767      3.050688     0.416649
C     -1.194190      5.099509     0.392311
H     -1.732690      4.376446    -1.553384
C      0.571829      3.911159     1.501975
H      1.422923      2.263736     0.424684
C     -0.366226      4.936959     1.495860
H     -1.926152      5.901078     0.372031
H      1.228501      3.780459     2.356716
H     -0.447242      5.608101     2.345084
C     -1.058510     -1.342371    -0.629648
H     -1.381027     -1.727890    -1.607393
H     -1.962837     -1.096036    -0.067861
C     -0.215105     -0.083753    -0.863305
C     -0.920880      0.964889    -1.726337
H      0.007683      0.375084     0.106684
H     -1.061860      0.552239    -2.733046
C     -2.294033      1.338766    -1.206749
O     -2.691539      1.224859    -0.078117
O     -3.065640      1.868022    -2.187061
H     -3.909074      2.109595    -1.776253
49
 -1042.14290322 -1041.77092200  0.77 0.91
C      1.346750     -2.545976    -0.331824
C      1.373937     -3.063985     1.134918
H      1.699686     -3.253469    -1.088580
H      2.172205     -2.634012     1.751477
C      1.379165     -4.559230     1.260549
C      0.373903     -5.236367     1.820097
H      2.251895     -5.089077     0.884678
H      0.430191     -6.317692     1.912005
C     -0.822482     -4.558251     2.342181
C     -1.016838     -3.254422     2.138785
H     -1.548447     -5.148266     2.894281
H     -1.907801     -2.762767     2.522766
C     -0.038954     -2.452056     1.339882
C     -0.196847     -2.443517    -0.209964
H      0.027087     -1.428886     1.722364
H     -0.641434     -3.400633    -0.500134
C      2.034571     -1.188412    -0.509270
H      2.099393     -0.666730     0.454812
H      3.065487     -1.336020    -0.849704
C      1.274550     -0.283649    -1.484788
C      2.037554      0.974416    -1.803056
H      1.148867     -0.837982    -2.429809
H      3.107834      0.868234    -1.972664
C      1.482539      2.175176    -1.905009
C      0.012233      2.440756    -1.707579
H      2.103119      3.040829    -2.125415
H     -0.338350      3.041735    -2.554789
C     -0.241571      3.267728    -0.450417
C     -1.221755      4.259160    -0.459311
C      0.481512      3.056929     0.722720
C     -1.480888      5.016913     0.676000
H     -1.792686      4.438856    -1.366260
C      0.226553      3.813685     1.859141
H      1.262466      2.303562     0.742425
C     -0.757468      4.795273     1.841115
H     -2.248710      5.784033     0.647917
H      0.800906      3.636771     2.763412
H     -0.956048      5.385895     2.729894
C     -0.927822     -1.306294    -0.912116
H     -1.117206     -1.601081    -1.953796
H     -1.904153     -1.162366    -0.441502
C     -0.127665      0.002281    -0.923656
C     -0.790342      1.107244    -1.752429
H     -0.020908      0.363944     0.105269
H     -0.808357      0.790387    -2.801303
C     -2.234514      1.412874    -1.410493
O     -3.037049      1.840256    -2.201872
O     -2.547960      1.213315    -0.114213
H     -3.466145      1.500890    -0.006738
49
 -1042.13841722 -1041.76785900  3.58 2.83
C      1.103316      2.160152    -1.182405
C      1.723648      0.898559    -1.861720
H      1.541377      3.055528    -1.630240
H      1.807550      0.077613    -1.142793
C      3.026625      1.076358    -2.576277
C      3.078410      1.312979    -3.887206
H      3.940883      1.041655    -1.987784
H      4.033256      1.461055    -4.383712
C      1.853230      1.383743    -4.698275
C      0.651666      1.134133    -4.176185
H      1.948890      1.642117    -5.749297
H     -0.237694      1.199430    -4.800228
C      0.454236      0.759802    -2.738590
C     -0.262160      1.843483    -1.875915
H     -0.031530     -0.221078    -2.676464
H     -0.641359      2.675143    -2.475592
C      1.188342      2.234918     0.350406
H      1.991780      1.569192     0.689533
H      1.476269      3.242233     0.668897
C     -0.111163      1.837533     1.074296
C      0.142358      1.523727     2.524331
H     -0.780429      2.711519     1.050018
H      0.812171      2.195119     3.059857
C     -0.403211      0.502446     3.171680
C     -1.349442     -0.482283     2.532884
H     -0.156131      0.328364     4.216446
H     -2.196597     -0.623499     3.213614
C     -0.696653     -1.849359     2.350682
C     -1.438620     -3.007257     2.577598
C      0.632823     -1.979759     1.951424
C     -0.874486     -4.264560     2.401330
H     -2.473237     -2.924748     2.899574
C      1.201873     -3.234492     1.776406
H      1.233617     -1.090144     1.792093
C      0.449297     -4.382308     1.997161
H     -1.470968     -5.153175     2.583734
H      2.239491     -3.316231     1.467246
H      0.894793     -5.362426     1.859023
C     -1.378785      1.306814    -0.976706
H     -2.065698      2.121781    -0.714167
H     -1.957298      0.566744    -1.533865
C     -0.834648      0.709895     0.324602
C     -1.924284      0.107832     1.212185
H     -0.123029     -0.088176     0.086528
H     -2.626938      0.899481     1.501333
C     -2.726330     -0.961234     0.498033
O     -2.381891     -1.590001    -0.467211
O     -3.923187     -1.168484     1.097382
H     -4.360135     -1.880139     0.606334
49
 -1042.13841722 -1041.76785600  3.58 2.83
C      1.130392      2.415449     0.412006
C      2.278027      1.357681     0.456166
H      1.554668      3.406566     0.590420
H      1.912021      0.411077     0.865829
C      3.544595      1.749811     1.150425
C      4.580539      2.256262     0.481446
H      3.588567      1.642601     2.232074
H      5.483287      2.555370     1.006572
C      4.534766      2.428219    -0.978772
C      3.494257      2.011217    -1.701332
H      5.381623      2.904329    -1.465298
H      3.486617      2.156965    -2.779921
C      2.302950      1.335977    -1.092531
C      0.989839      2.176416    -1.127092
H      2.180071      0.338889    -1.531473
H      1.092449      3.092735    -1.714369
C     -0.070571      2.174968     1.340517
H      0.239862      1.498438     2.146526
H     -0.369862      3.108484     1.828365
C     -1.298169      1.565388     0.638995
C     -2.259346      0.970889     1.633008
H     -1.829537      2.387513     0.134895
H     -2.451800      1.551394     2.534218
C     -2.878137     -0.190758     1.467493
C     -2.693594     -1.070787     0.257291
H     -3.545249     -0.564791     2.240766
H     -3.685792     -1.396220    -0.075342
C     -1.905777     -2.332634     0.596876
C     -0.815589     -2.304925     1.465577
C     -2.268490     -3.550850     0.024929
C     -0.103065     -3.463093     1.747999
H     -0.531828     -1.370439     1.938829
C     -1.557188     -4.711534     0.302400
H     -3.122116     -3.593286    -0.646212
C     -0.468788     -4.670754     1.164573
H      0.741769     -3.422410     2.428816
H     -1.857318     -5.649622    -0.154341
H      0.089491     -5.575091     1.385211
C     -0.248731      1.404965    -1.589955
H     -1.008369      2.109187    -1.953229
H      0.025974      0.766741    -2.432580
C     -0.870952      0.580838    -0.458825
C     -2.071738     -0.250818    -0.910559
H     -0.120568     -0.110531    -0.060186
H     -2.856999      0.424104    -1.273715
C     -1.728946     -1.189749    -2.049459
O     -0.632889     -1.584369    -2.347133
O     -2.837645     -1.581635    -2.721660
H     -2.542713     -2.198180    -3.408240
49
 -1042.13359028 -1041.76361300  6.61 5.50
C      0.685604      2.523612    -1.731629
C      0.473858      2.498796    -3.273221
H      0.890880      3.506577    -1.296442
H      1.316865      2.085241    -3.839484
C      0.059349      3.815715    -3.860983
C     -1.126867      3.999714    -4.445154
H      0.774692      4.633736    -3.808190
H     -1.376369      4.964043    -4.879534
C     -2.120805      2.919502    -4.539674
C     -1.936241      1.758996    -3.908468
H     -3.013793      3.092491    -5.133459
H     -2.679648      0.968240    -3.978597
C     -0.727869      1.538828    -3.054487
C     -0.777858      2.035004    -1.579231
H     -0.408772      0.492898    -3.094865
H     -1.442139      2.904424    -1.550169
C      1.718633      1.498280    -1.256794
H      1.825173      0.702494    -2.006259
H      2.701607      1.975328    -1.173311
C      1.341436      0.835258     0.069808
C      2.395714     -0.138332     0.533700
H      1.223150      1.620046     0.834771
H      3.383735     -0.097215     0.081062
C      2.115817     -1.021837     1.482385
C      0.761307     -0.986737     2.149218
H      2.862512     -1.720567     1.846087
H      0.749578     -0.081244     2.770617
C      0.491362     -2.149326     3.087073
C      0.884906     -3.449161     2.770077
C     -0.185070     -1.932584     4.285977
C      0.615150     -4.502312     3.634034
H      1.395395     -3.641943     1.832150
C     -0.458871     -2.983667     5.152491
H     -0.500734     -0.925697     4.547456
C     -0.057303     -4.273914     4.829180
H      0.930011     -5.507700     3.370813
H     -0.986256     -2.793415     6.082365
H     -0.267836     -5.098015     5.503444
C     -1.120170      1.088845    -0.438694
H     -1.331252      1.687202     0.457976
H     -2.043411      0.543097    -0.671695
C      0.000554      0.100307    -0.102907
C     -0.392842     -0.781987     1.109125
H      0.147594     -0.575073    -0.952854
H     -1.221861     -0.318787     1.651179
C     -0.894977     -2.125944     0.616345
O     -0.349167     -2.820052    -0.202001
O     -2.050699     -2.492572     1.211961
H     -2.274069     -3.370594     0.868808
49
 -1042.13380561 -1041.76268000  6.47 6.08
C     -0.084192      1.440716    -2.322505
C     -0.117780      0.490573    -3.554699
H     -0.300658      2.460173    -2.656088
H      0.495121     -0.394839    -3.357458
C      0.198497      1.066166    -4.898694
C     -0.754750      1.622191    -5.647723
H      1.231767      1.057678    -5.237170
H     -0.514415      2.066116    -6.609642
C     -2.153377      1.656434    -5.193438
C     -2.550240      1.020629    -4.089268
H     -2.871833      2.212091    -5.789969
H     -3.592534      1.065082    -3.779816
C     -1.614686      0.212167    -3.239886
C     -1.391769      0.782725    -1.808752
H     -1.913669     -0.842611    -3.262143
H     -2.156201      1.490317    -1.473451
C      1.083812      1.439831    -1.336359
H      1.702693      0.541502    -1.455244
H      1.739194      2.300428    -1.505888
C      0.501383      1.463784     0.080628
C      1.475085      1.840026     1.164310
H     -0.288599      2.232594     0.083814
H      2.248167      2.565515     0.917989
C      1.393659      1.369256     2.402964
C      0.359531      0.372681     2.867200
H      2.116455      1.686315     3.151482
H     -0.136363      0.790224     3.751374
C      1.020229     -0.928832     3.316011
C      2.109717     -1.469418     2.634924
C      0.530407     -1.606548     4.431792
C      2.690112     -2.659598     3.054537
H      2.519245     -0.946308     1.776907
C      1.107132     -2.797841     4.853669
H     -0.317548     -1.199423     4.975551
C      2.189828     -3.329871     4.164506
H      3.539203     -3.064444     2.512346
H      0.709928     -3.309645     5.724926
H      2.644001     -4.259850     4.491683
C     -1.150772     -0.294955    -0.747657
H     -2.115972     -0.594771    -0.327275
H     -0.755504     -1.191103    -1.237584
C     -0.158070      0.109683     0.378247
C     -0.751076      0.170000     1.790106
H      0.638744     -0.640924     0.394550
H     -1.421923      1.033160     1.857939
C     -1.600259     -1.018853     2.188992
O     -2.510860     -0.964978     2.977077
O     -1.227312     -2.176361     1.606731
H     -1.793546     -2.866883     1.980451
49
 -1042.13213682 -1041.76241600  7.52 6.25
C     -0.635021      2.354121    -1.946441
C     -0.019891      3.759113    -1.682179
H     -1.123796      2.224992    -2.917036
H     -0.591756      4.379509    -0.981867
C      0.288531      4.541420    -2.924951
C      1.533183      4.877934    -3.271144
H     -0.551964      4.845537    -3.545212
H      1.708946      5.466385    -4.167628
C      2.696248      4.488933    -2.458946
C      2.565504      3.652871    -1.427836
H      3.667862      4.896309    -2.723408
H      3.432002      3.365561    -0.836701
C      1.234692      3.057298    -1.092788
C      0.798886      1.771416    -1.855397
H      1.134370      2.913447    -0.012612
H      1.261365      1.807981    -2.846700
C     -1.553488      1.884778    -0.814842
H     -1.311755      2.426175     0.109798
H     -2.592990      2.135264    -1.054246
C     -1.428107      0.388217    -0.519242
C     -2.373915     -0.051879     0.570422
H     -1.661800     -0.173948    -1.437982
H     -3.202678      0.599376     0.838441
C     -2.199661     -1.217289     1.179011
C     -1.096690     -2.138557     0.717363
H     -2.885321     -1.562096     1.946444
H     -1.423664     -2.531852    -0.254921
C     -0.857113     -3.352097     1.598485
C     -1.004963     -3.300844     2.983663
C     -0.449931     -4.552785     1.018639
C     -0.763044     -4.422402     3.766721
H     -1.303618     -2.371161     3.455648
C     -0.203355     -5.676344     1.797310
H     -0.325919     -4.610043    -0.059831
C     -0.360850     -5.614864     3.176740
H     -0.885776     -4.362612     4.844080
H      0.111747     -6.601720     1.324703
H     -0.170036     -6.490502     3.789115
C      0.991351      0.388831    -1.251616
H      0.836932     -0.359387    -2.040424
H      2.026612      0.268338    -0.908985
C      0.022349      0.080446    -0.106097
C      0.229137     -1.368753     0.410179
H      0.234215      0.762141     0.725584
H      0.763975     -1.949111    -0.345434
C      1.168098     -1.359316     1.598408
O      2.245180     -1.894938     1.636378
O      0.681005     -0.657759     2.647397
H      1.344912     -0.716133     3.349936
49
 -1042.13057569 -1041.75985000  8.50 7.86
C      1.359805     -2.633411    -0.699852
C      0.993258     -3.999376    -0.050773
H      1.993515     -2.688358    -1.590389
H      1.522714     -4.212436     0.885505
C      1.103689     -5.172795    -0.979552
C      0.046351     -5.901473    -1.344619
H      2.095595     -5.427497    -1.346810
H      0.175560     -6.758121    -2.000606
C     -1.310684     -5.592043    -0.868744
C     -1.559017     -4.478896    -0.177027
H     -2.108855     -6.291717    -1.099646
H     -2.566731     -4.254798     0.165209
C     -0.467762     -3.494103     0.101076
C     -0.151216     -2.429407    -0.990700
H     -0.618270     -3.012202     1.072137
H     -0.388886     -2.875797    -1.961249
C      1.933230     -1.624587     0.301179
H      1.636235     -1.899251     1.322248
H      3.027975     -1.661887     0.277669
C      1.447160     -0.199368     0.036625
C      2.057399      0.824722     0.961247
H      1.705957      0.065608    -1.001240
H      2.871260      0.533012     1.619988
C      1.557689      2.053266     0.973619
C      0.420118      2.361756     0.022167
H      1.916676      2.820896     1.648874
H      0.813741      2.218360    -0.995540
C     -0.066676      3.802464     0.069498
C     -1.411309      4.161079     0.002115
C      0.880455      4.827663     0.115967
C     -1.798672      5.497501     0.007470
H     -2.186792      3.404748    -0.054743
C      0.499680      6.161770     0.119682
H      1.936856      4.576299     0.140239
C     -0.847256      6.504936     0.070276
H     -2.854632      5.746696    -0.039439
H      1.258658      6.937410     0.158662
H     -1.149393      7.547316     0.075005
C     -0.738852     -1.027749    -0.912327
H     -0.593275     -0.529692    -1.880654
H     -1.821501     -1.084468    -0.748442
C     -0.089365     -0.166235     0.172576
C     -0.668676      1.286599     0.191206
H     -0.308796     -0.617930     1.149093
H     -1.397497      1.376343    -0.618923
C     -1.424517      1.462980     1.490025
O     -1.033511      2.021659     2.478041
O     -2.638547      0.860891     1.433341
H     -3.052892      0.979619     2.300536
49
 -1042.12940933 -1041.75867600  9.23 8.59
C      3.062061      0.266529     0.027894
C      3.881290      0.835804    -1.166642
H      3.615402      0.136817     0.963109
H      4.135422      0.096047    -1.935108
C      5.109347      1.598643    -0.764613
C      5.253790      2.904143    -1.003448
H      5.904013      1.042343    -0.271995
H      6.170557      3.412152    -0.716539
C      4.204712      3.691716    -1.668965
C      3.005389      3.164810    -1.920501
H      4.429551      4.717538    -1.946577
H      2.233409      3.756533    -2.407035
C      2.682336      1.766956    -1.496732
C      2.184780      1.544220    -0.037858
H      2.000460      1.292905    -2.209486
H      2.641299      2.320399     0.584224
C      2.300924     -1.014555    -0.326548
H      2.163823     -1.077731    -1.414560
H      2.895136     -1.889346    -0.040024
C      0.916628     -1.082685     0.320768
C      0.185353     -2.361564    -0.003387
H      1.035864     -1.004070     1.413342
H      0.719979     -3.170629    -0.494771
C     -1.107784     -2.455813     0.273880
C     -1.775933     -1.291082     0.973843
H     -1.690289     -3.330832     0.011106
H     -1.287655     -1.205620     1.956778
C     -3.253518     -1.497497     1.279092
C     -4.195263     -0.470997     1.214894
C     -3.684352     -2.751537     1.719129
C     -5.526911     -0.698483     1.549117
H     -3.909903      0.528984     0.908943
C     -5.010992     -2.981600     2.054185
H     -2.966910     -3.560966     1.813449
C     -5.943862     -1.954203     1.964869
H     -6.239155      0.118770     1.484964
H     -5.317047     -3.967905     2.389901
H     -6.982745     -2.131064     2.224462
C      0.701628      1.437626     0.282888
H      0.572988      1.522465     1.370463
H      0.156829      2.278276    -0.162768
C      0.077717      0.114895    -0.168064
C     -1.425964      0.028729     0.249345
H      0.117994      0.068530    -1.264683
H     -1.645393      0.862696     0.919859
C     -2.248041      0.302345    -0.991130
O     -2.586822      1.402585    -1.349636
O     -2.532137     -0.803815    -1.705464
H     -3.028003     -0.511463    -2.483968
