49
 -1042.14390808 -1041.77218100  0.00 0.00
C      0.154719     -2.318873    -1.066041
C      0.836239     -3.484298    -0.288221
H     -0.411662     -2.760974    -1.891558
H      1.694051     -3.112725     0.280915
C      1.199631     -4.716395    -1.054442
C      0.303330     -5.683874    -1.254321
H      2.197990     -4.792801    -1.478676
H      0.558044     -6.563914    -1.838026
C     -1.054164     -5.585804    -0.696000
C     -1.399755     -4.610585     0.147167
H     -1.780073     -6.342896    -0.980019
H     -2.411712     -4.567349     0.544854
C     -0.434937     -3.556131     0.602467
C     -0.793161     -2.112555     0.145079
H     -0.255915     -3.657042     1.679480
H     -1.842263     -1.947448    -0.118006
C      0.965902     -1.134776    -1.570322
H      1.837290     -1.491832    -2.133236
H      0.354531     -0.557169    -2.275895
C      1.411178     -0.196450    -0.443288
C      2.175039      0.987933    -0.971530
H      2.100971     -0.756585     0.209128
H      2.883247      0.796437    -1.776123
C      2.043580      2.223139    -0.506307
C      1.111060      2.604340     0.614286
H      2.617268      3.033748    -0.949732
H      1.681827      3.200162     1.335597
C     -0.022241      3.491941     0.111149
C     -0.654358      3.253374    -1.108486
C     -0.450568      4.572049     0.880390
C     -1.693448      4.067233    -1.541086
H     -0.319278      2.432441    -1.733921
C     -1.490716      5.387925     0.453095
H      0.037848      4.779584     1.828652
C     -2.117906      5.136396    -0.760473
H     -2.172606      3.866176    -2.494412
H     -1.807807      6.223836     1.069094
H     -2.930164      5.771720    -1.099249
C     -0.322443     -1.036666     1.130831
H     -1.146749     -0.782995     1.800310
H      0.488082     -1.434511     1.758142
C      0.202231      0.212141     0.413410
C      0.619183      1.333517     1.368172
H     -0.587835      0.596219    -0.242959
H      1.465451      0.982570     1.972119
C     -0.477883      1.730900     2.334725
O     -1.658818      1.560272     2.190148
O      0.027168      2.355405     3.426011
H     -0.729395      2.605191     3.977107
49
 -1042.14288527 -1041.77079100  0.64 0.87
C      1.045520     -1.248815    -1.944854
C      1.491669     -2.733611    -1.790044
H      1.003050     -1.027822    -3.015844
H      1.917403     -2.902002    -0.795930
C      2.373097     -3.311777    -2.851281
C      1.850410     -3.827224    -3.965074
H      3.451190     -3.270296    -2.715274
H      2.492186     -4.217749    -4.749719
C      0.393892     -3.877900    -4.165247
C     -0.462003     -3.552136    -3.194288
H      0.021538     -4.202485    -5.133129
H     -1.534161     -3.602947    -3.373041
C     -0.010704     -3.128809    -1.827743
C     -0.368723     -1.660794    -1.456600
H     -0.325826     -3.872097    -1.085775
H     -1.195571     -1.218270    -2.020196
C      1.776385     -0.131621    -1.214566
H      2.856067     -0.214766    -1.390374
H      1.465922      0.833616    -1.635386
C      1.485835     -0.112964     0.290486
C      2.180892      1.030308     0.980466
H      1.889758     -1.041917     0.724746
H      3.198514      1.249742     0.661303
C      1.634768      1.756660     1.946833
C      0.245045      1.531942     2.482753
H      2.192621      2.579671     2.387586
H      0.308112      1.489221     3.576384
C     -0.675473      2.699265     2.143224
C     -1.609144      3.140946     3.079371
C     -0.615963      3.343727     0.908269
C     -2.468558      4.193330     2.789487
H     -1.667948      2.651881     4.047877
C     -1.472847      4.396939     0.614705
H      0.118049      3.027658     0.174143
C     -2.403911      4.824936     1.553826
H     -3.188264      4.521190     3.533373
H     -1.411183      4.887128    -0.352143
H     -3.072869      5.648253     1.324028
C     -0.588263     -1.459659     0.047003
H     -1.654380     -1.551214     0.267349
H     -0.083083     -2.258619     0.607565
C     -0.031827     -0.116892     0.534880
C     -0.300688      0.149919     2.018902
H     -0.484471      0.690141    -0.053731
H      0.228104     -0.607283     2.609057
C     -1.748541      0.047760     2.455827
O     -2.095408     -0.248727     3.571411
O     -2.637371      0.370300     1.493558
H     -3.512842      0.333861     1.905833
49
 -1042.13502580 -1041.76370300  5.57 5.32
C      1.729170     -0.916805    -1.354539
C      2.238007     -2.004417    -2.343805
H      1.670360      0.095584    -1.766138
H      3.247398     -2.374110    -2.126440
C      2.139320     -1.612980    -3.788865
C      1.334959     -2.238546    -4.650795
H      2.764808     -0.788968    -4.125779
H      1.312142     -1.934598    -5.693854
C      0.471850     -3.354879    -4.235425
C      0.355699     -3.693723    -2.950759
H     -0.075963     -3.894588    -5.002637
H     -0.293770     -4.513775    -2.653385
C      1.074989     -2.928579    -1.885331
C      0.377462     -1.675312    -1.279769
H      1.398501     -3.599121    -1.082820
H     -0.317635     -1.260606    -2.015928
C      2.448965     -0.916821    -0.008661
H      2.766877     -1.942827     0.211361
H      3.367848     -0.324373    -0.074568
C      1.563378     -0.418068     1.161279
C      1.970340      0.907048     1.751175
H      1.672608     -1.159188     1.968046
H      3.017146      1.197819     1.690970
C      1.111742      1.698095     2.383221
C     -0.358293      1.400550     2.557806
H      1.453773      2.640370     2.805124
H     -0.579102      1.436379     3.630869
C     -1.208099      2.485028     1.902538
C     -0.871582      3.033798     0.666013
C     -2.355582      2.948491     2.543458
C     -1.666599      4.012159     0.082539
H      0.030656      2.705782     0.160566
C     -3.154821      3.925786     1.963743
H     -2.628861      2.537560     3.511481
C     -2.813104      4.460545     0.728019
H     -1.386806      4.427739    -0.880677
H     -4.044310      4.271506     2.481523
H     -3.433703      5.225181     0.271575
C     -0.280468     -1.714851     0.100003
H     -1.359036     -1.849513     0.002537
H      0.105335     -2.554218     0.694097
C      0.068138     -0.395240     0.798703
C     -0.707686     -0.042778     2.068569
H     -0.112048      0.407359     0.074101
H     -0.416456     -0.729887     2.871725
C     -2.208785     -0.167309     1.911429
O     -2.828935     -0.121695     0.882961
O     -2.819066     -0.324590     3.110693
H     -3.770768     -0.364415     2.934048
49
 -1042.13308785 -1041.76329200  6.79 5.58
C      0.021520     -2.104529    -2.152826
C      1.362719     -2.844084    -1.868071
H     -0.499564     -2.664091    -2.935986
H      2.079384     -2.164931    -1.395802
C      1.999596     -3.593384    -2.994994
C      1.630384     -4.844071    -3.276155
H      2.742865     -3.086700    -3.605958
H      2.069375     -5.376664    -4.115004
C      0.617592     -5.535333    -2.463546
C      0.138487     -5.006127    -1.335693
H      0.269268     -6.508366    -2.799241
H     -0.607727     -5.544701    -0.755071
C      0.603774     -3.683349    -0.802681
C     -0.491850     -2.578444    -0.768363
H      1.127515     -3.830051     0.149444
H     -1.526155     -2.934772    -0.758161
C     -0.008417     -0.618898    -2.476658
H      0.689485     -0.401717    -3.294676
H     -1.010226     -0.362332    -2.845884
C      0.295564      0.281587    -1.275951
C      0.088163      1.740647    -1.597221
H      1.349696      0.137943    -0.988552
H     -0.016675      2.042035    -2.636806
C      0.043863      2.634020    -0.617806
C      0.284424      2.176993     0.800561
H     -0.090190      3.692344    -0.815470
H      1.346848      1.905202     0.860226
C      0.057016      3.242617     1.856958
C     -1.004098      4.144454     1.774043
C      0.910290      3.319580     2.956162
C     -1.202041      5.098612     2.763523
H     -1.691143      4.091879     0.935704
C      0.715553      4.272048     3.948519
H      1.742639      2.624850     3.035521
C     -0.343055      5.167063     3.854573
H     -2.034329      5.791458     2.682974
H      1.393254      4.315365     4.795761
H     -0.499366      5.913479     4.626913
C     -0.266892     -1.553818     0.347606
H     -0.862826     -1.828702     1.225633
H      0.783576     -1.580889     0.669481
C     -0.590644     -0.121071    -0.083748
C     -0.488850      0.853826     1.118546
H     -1.622877     -0.082774    -0.450942
H      0.042975      0.370125     1.942586
C     -1.880052      1.174868     1.630181
O     -2.813589      1.519299     0.952903
O     -1.976249      1.042125     2.971014
H     -2.879009      1.297381     3.212427
49
 -1042.13183177 -1041.76203400  7.58 6.37
C      0.252913     -2.948790     0.395806
C      1.654629     -3.089490     1.060738
H     -0.212490     -3.939387     0.403597
H      2.305002     -2.263272     0.756954
C      2.360727     -4.401463     0.929438
C      2.106715     -5.399444     1.777453
H      3.057657     -4.540247     0.106355
H      2.595008     -6.362945     1.662284
C      1.157510     -5.226391     2.887847
C      0.628779     -4.036974     3.183482
H      0.899546     -6.099417     3.481218
H     -0.067699     -3.941437     4.014026
C      0.971012     -2.789467     2.423832
C     -0.220269     -2.160140     1.644599
H      1.502338     -2.089182     3.079272
H     -1.218168     -2.424999     2.006390
C      0.089864     -2.316173    -0.977676
H      0.769155     -2.796705    -1.692413
H     -0.929131     -2.515471    -1.335187
C      0.304618     -0.799688    -0.990240
C     -0.036013     -0.193005    -2.328990
H      1.365984     -0.593357    -0.778224
H     -0.154682     -0.848744    -3.188408
C     -0.176907      1.120548    -2.447763
C      0.089224      1.999250    -1.250478
H     -0.402308      1.583970    -3.402531
H      1.175454      1.967826    -1.090045
C     -0.264291      3.464903    -1.431219
C      0.516371      4.440338    -0.812332
C     -1.366405      3.874935    -2.180576
C      0.211736      5.789512    -0.939708
H      1.379115      4.138684    -0.223875
C     -1.674135      5.223110    -2.312894
H     -1.995808      3.132408    -2.659220
C     -0.886647      6.186225    -1.692914
H      0.835049      6.531857    -0.450468
H     -2.536800      5.522024    -2.900895
H     -1.128427      7.239349    -1.795914
C     -0.090689     -0.642136     1.489956
H     -0.658608     -0.137340     2.279563
H      0.957619     -0.343538     1.627606
C     -0.542030     -0.143123     0.114764
C     -0.522423      1.409437     0.060258
H     -1.571857     -0.477912    -0.059382
H      0.075889      1.791540     0.890885
C     -1.911473      1.948261     0.330867
O     -2.216267      2.638805     1.268419
O     -2.816951      1.559355    -0.595331
H     -3.661438      1.957903    -0.338926
49
 -1042.13021681 -1041.75953400  8.59 7.94
C      0.773388     -1.860654    -2.185192
C      1.648956     -2.847227    -1.356256
H      0.695576     -2.265224    -3.199176
H      2.073544     -2.339742    -0.484410
C      2.698042     -3.627868    -2.082423
C      2.393455     -4.773206    -2.694732
H      3.706830     -3.225282    -2.134521
H      3.148278     -5.323264    -3.249458
C      1.029449     -5.321400    -2.640544
C      0.085060     -4.784546    -1.865003
H      0.804715     -6.195035    -3.246407
H     -0.913671     -5.215956    -1.844547
C      0.342220     -3.599799    -0.981386
C     -0.460341     -2.322586    -1.363850
H      0.247916     -3.893787     0.070776
H     -1.365368     -2.492391    -1.954668
C      1.106974     -0.376663    -2.245331
H      2.159392     -0.242820    -2.523930
H      0.511441      0.086882    -3.042942
C      0.811754      0.360612    -0.938268
C      1.012538      1.852423    -1.036950
H      1.491497     -0.027086    -0.163166
H      1.455790      2.275417    -1.934963
C      0.606635      2.619260    -0.033565
C      0.001884      1.933953     1.173539
H      0.671669      3.700276    -0.064694
H      0.788085      1.288894     1.595039
C     -0.399781      2.874197     2.300398
C      0.473155      3.906246     2.651470
C     -1.565268      2.724401     3.048049
C      0.182766      4.772794     3.694925
H      1.401333      4.027454     2.100772
C     -1.862099      3.591272     4.095090
H     -2.269270      1.928727     2.828095
C     -0.993364      4.622030     4.422148
H      0.879168      5.568156     3.943162
H     -2.781096      3.454027     4.657188
H     -1.225349      5.298784     5.238281
C     -0.772595     -1.427763    -0.159695
H     -1.782227     -1.640710     0.207266
H     -0.085786     -1.658774     0.666528
C     -0.633104      0.059241    -0.489222
C     -1.098008      0.969247     0.695406
H     -1.273515      0.279318    -1.354470
H     -1.400556      0.324851     1.525556
C     -2.332803      1.718892     0.243879
O     -2.382402      2.851894    -0.150162
O     -3.430907      0.924633     0.298471
H     -4.174002      1.447902    -0.036113
49
 -1042.12912222 -1041.75835800  9.28 8.67
C     -0.539606      2.937815    -0.105721
C      0.747795      3.473655     0.588722
H     -1.112059      3.806425    -0.445972
H      1.160768      2.716199     1.262259
C      0.672964      4.805827     1.264677
C      0.849955      5.932000     0.571893
H      0.433812      4.841625     2.324842
H      0.763146      6.900486     1.056174
C      1.162873      5.895752    -0.865013
C      1.428008      4.751661    -1.499349
H      1.186089      6.837016    -1.407501
H      1.659788      4.759082    -2.562471
C      1.444469      3.424835    -0.799495
C      0.345753      2.430042    -1.274406
H      2.460575      3.012813    -0.808027
H     -0.061403      2.614363    -2.272949
C     -1.464561      1.956287     0.598468
H     -1.733837      2.342724     1.589019
H     -2.399682      1.885181     0.027145
C     -0.880090      0.547485     0.726375
C     -1.879380     -0.448100     1.260911
H     -0.020848      0.586188     1.414326
H     -2.836027     -0.094031     1.637179
C     -1.590118     -1.741460     1.215693
C     -0.228703     -2.148561     0.694898
H     -2.296245     -2.500264     1.530976
H      0.505533     -1.723221     1.396602
C      0.033019     -3.648884     0.702991
C     -0.410023     -4.403903     1.791935
C      0.759382     -4.303097    -0.290915
C     -0.164466     -5.766799     1.872643
H     -0.949011     -3.913546     2.596731
C      1.007695     -5.670386    -0.213436
H      1.152058     -3.761165    -1.143971
C      0.543269     -6.410756     0.863482
H     -0.524977     -6.328039     2.729531
H      1.572277     -6.154945    -1.004496
H      0.735963     -7.477254     0.921849
C      0.768992      0.964878    -1.131770
H      1.158875      0.594442    -2.085656
H      1.591384      0.884356    -0.407326
C     -0.370518      0.067206    -0.646647
C      0.056522     -1.436888    -0.646457
H     -1.217107      0.178288    -1.338712
H      1.129359     -1.488291    -0.846824
C     -0.593009     -2.082992    -1.850609
O     -0.097328     -2.112123    -2.949446
O     -1.816328     -2.587345    -1.602189
H     -2.144996     -2.944581    -2.439964
49
 -1042.12260855 -1041.75237500  13.37 12.43
C      0.705608      0.826094    -2.594694
C      1.461573      1.874242    -3.461397
H      0.624879     -0.170291    -3.040308
H      0.817299      2.650767    -3.891206
C      2.322338      1.275271    -4.534445
C      3.652562      1.383933    -4.534857
H      1.817930      0.742750    -5.337993
H      4.234309      0.951835    -5.344623
C      4.372584      2.093118    -3.466416
C      3.733814      2.536749    -2.382915
H      5.442646      2.242575    -3.578653
H      4.277712      3.050752    -1.593848
C      2.267962      2.299047    -2.202171
C      1.815628      0.975188    -1.518556
H      1.799269      3.154216    -1.704682
H      2.582176      0.209848    -1.671989
C     -0.647626      1.306466    -2.077323
H     -0.583573      2.387400    -1.904994
H     -1.418175      1.169185    -2.843784
C     -1.078293      0.631375    -0.757568
C     -2.102407     -0.472875    -0.861185
H     -1.496613      1.420507    -0.116553
H     -2.500319     -0.767674    -1.828663
C     -2.425723     -1.111716     0.258157
C     -1.831355     -0.601913     1.556176
H     -3.085225     -1.970326     0.260751
H     -2.194456      0.430936     1.666408
C     -2.294900     -1.317548     2.818775
C     -3.585997     -1.842808     2.888521
C     -1.499586     -1.397019     3.961796
C     -4.054721     -2.453823     4.043643
H     -4.246016     -1.764098     2.031266
C     -1.963583     -2.008991     5.120597
H     -0.498783     -0.978433     3.970446
C     -3.242018     -2.546641     5.167400
H     -5.063018     -2.856437     4.065249
H     -1.318147     -2.060331     5.992492
H     -3.605414     -3.025339     6.071100
C      1.329678      0.953967    -0.068859
H      2.124421      0.622747     0.606461
H      1.027496      1.957355     0.259135
C      0.123463      0.014473    -0.010115
C     -0.292472     -0.458936     1.412986
H      0.393745     -0.885041    -0.577113
H      0.072816      0.261439     2.150300
C      0.408326     -1.777934     1.659282
O      0.002165     -2.860668     1.334456
O      1.610266     -1.606981     2.262116
H      2.007753     -2.486415     2.347399
