49
 -1042.14458995 -1041.77327300  0.00 0.00
C      1.128323     -2.499737     0.015159
C      1.272585     -2.789462     1.537263
H      1.379280     -3.333027    -0.648382
H      2.141303     -2.313557     2.007441
C      1.231515     -4.245796     1.895905
C      0.258842     -4.774688     2.641754
H      2.043063     -4.872882     1.532768
H      0.281638     -5.830529     2.897745
C     -0.855281     -3.961791     3.153363
C     -1.017522     -2.696325     2.764322
H     -1.548020     -4.420646     3.853016
H     -1.848705     -2.105244     3.142140
C     -0.089636     -2.079187     1.766159
C     -0.393881     -2.300239     0.254757
H      0.052408     -1.014589     1.976008
H     -0.895984     -3.268141     0.159932
C      1.856370     -1.226014    -0.431052
H      2.026339     -0.565731     0.430179
H      2.846759     -1.484089    -0.822822
C      1.052634     -0.446773    -1.478476
C      1.815336      0.732879    -2.017163
H      0.843566     -1.119653    -2.319390
H      2.844007      0.549406    -2.324841
C      1.313034      1.956162    -2.144523
C     -0.103404      2.327185    -1.777261
H      1.938496      2.759627    -2.527117
H     -0.506349      2.957106    -2.577581
C     -0.198698      3.147881    -0.496750
C     -1.295660      3.990427    -0.315849
C      0.753586      3.067593     0.516703
C     -1.441836      4.734376     0.847566
H     -2.043575      4.064739    -1.101590
C      0.611131      3.811883     1.682432
H      1.616036      2.421569     0.390207
C     -0.486389      4.646184     1.853270
H     -2.302172      5.385722     0.967625
H      1.363841      3.738322     2.461472
H     -0.595337      5.225844     2.764375
C     -1.143690     -1.251769    -0.557353
H     -1.454680     -1.700289    -1.506739
H     -2.057141     -0.956280    -0.025654
C     -0.282321     -0.022100    -0.852309
C     -0.993555      1.057066    -1.671878
H     -0.047315      0.463798     0.104578
H     -1.923173      1.343112    -1.167004
C     -1.402996      0.608359    -3.060612
O     -1.075579     -0.399120    -3.631582
O     -2.229081      1.512864    -3.638429
H     -2.438108      1.175550    -4.521787
49
 -1042.14123443 -1041.77024500  2.11 1.90
C      1.305036     -2.382275    -0.516632
C      1.181171     -3.174215     0.817324
H      1.739849     -2.933957    -1.355833
H      1.911417     -2.886928     1.583143
C      1.173304     -4.665553     0.651739
C      0.116380     -5.417466     0.967710
H      2.079507     -5.130630     0.269425
H      0.162825     -6.497241     0.854608
C     -1.126512     -4.828460     1.489088
C     -1.299360     -3.506180     1.521578
H     -1.904682     -5.498765     1.842764
H     -2.224625     -3.079672     1.902195
C     -0.245786     -2.585559     0.992104
C     -0.243455     -2.283170    -0.535979
H     -0.219893     -1.654369     1.566364
H     -0.648573     -3.164410    -1.043212
C      2.001625     -1.028748    -0.345571
H      1.945753     -0.707400     0.703091
H      3.067354     -1.127405    -0.580449
C      1.368872      0.073745    -1.203260
C      2.126725      1.370181    -1.079363
H      1.407551     -0.245470    -2.256588
H      3.213671      1.307638    -1.101990
C      1.547733      2.556378    -0.947933
C      0.054221      2.775366    -0.931306
H      2.161822      3.448040    -0.840339
H     -0.165184      3.588323    -1.633541
C     -0.452542      3.235267     0.431523
C     -1.602650      4.021698     0.502837
C      0.180185      2.874930     1.619601
C     -2.111329      4.436819     1.726489
H     -2.105594      4.315595    -0.415209
C     -0.325709      3.289422     2.846738
H      1.081757      2.272276     1.583886
C     -1.473123      4.069873     2.905611
H     -3.006655      5.050200     1.758589
H      0.182102      3.000243     3.761867
H     -1.866278      4.392177     3.864536
C     -0.896980     -1.027445    -1.095031
H     -0.994525     -1.140474    -2.179941
H     -1.917877     -0.931166    -0.707164
C     -0.098675      0.242931    -0.790355
C     -0.724041      1.519054    -1.392891
H     -0.109192      0.405858     0.295848
H     -1.755018      1.586230    -1.034558
C     -0.860941      1.417960    -2.900248
O     -1.809727      0.936084    -3.466333
O      0.189601      1.918690    -3.582950
H     -0.009533      1.791979    -4.521984
49
 -1042.14083966 -1041.76980000  2.35 2.18
C      1.162613     -2.322993     0.560077
C      1.078588     -2.321674     2.113877
H      1.541718     -3.245154     0.108743
H      1.849665     -1.718420     2.607599
C      1.025484     -3.688367     2.731052
C     -0.034524     -4.127295     3.413665
H      1.901236     -4.323399     2.614932
H     -0.020618     -5.115712     3.865003
C     -1.237199     -3.300015     3.594952
C     -1.374944     -2.138373     2.954024
H     -2.015123     -3.662268     4.260948
H     -2.270869     -1.536586     3.088624
C     -0.323389     -1.662290     2.002286
C     -0.383855     -2.176420     0.533573
H     -0.247373     -0.570753     2.023310
H     -0.831685     -3.174886     0.556478
C      1.908734     -1.107697    -0.002331
H      1.909787     -0.292195     0.733530
H      2.958874     -1.366063    -0.179262
C      1.262505     -0.578063    -1.288901
C      2.056690      0.556159    -1.885140
H      1.238402     -1.398479    -2.018533
H      3.124611      0.385693    -2.014322
C      1.541172      1.728039    -2.243313
C      0.072491      2.064290    -2.138856
H      2.193317      2.505540    -2.634721
H     -0.221765      2.587794    -3.053234
C     -0.255253      2.986827    -0.971556
C     -1.416595      3.757881    -1.024203
C      0.550301      3.077830     0.162041
C     -1.770040      4.593923     0.026773
H     -2.051651      3.705533    -1.905165
C      0.200453      3.914475     1.215824
H      1.462020      2.492665     0.218719
C     -0.961001      4.673850     1.154032
H     -2.677875      5.186121    -0.036496
H      0.841155      3.972433     2.090515
H     -1.232235      5.325939     1.978148
C     -1.036081     -1.349448    -0.568340
H     -1.201662     -1.993097    -1.435195
H     -2.023393     -1.004886    -0.235372
C     -0.176802     -0.148656    -0.973159
C     -0.755248      0.755041    -2.070607
H     -0.115627      0.509220    -0.095959
H     -1.788684      1.015035    -1.809712
C     -0.856484      0.187323    -3.480409
O     -1.077235      0.859183    -4.455996
O     -0.711127     -1.151708    -3.574294
H     -0.811478     -1.365906    -4.513647
49
 -1042.13825572 -1041.76647800  3.97 4.26
C     -0.921017     -0.040203     2.575564
C     -2.408066      0.390728     2.419025
H     -0.620416     -0.341261     3.583749
H     -2.555551      1.470841     2.301410
C     -3.318332     -0.136499     3.489082
C     -4.310039     -0.991863     3.230353
H     -3.151892      0.215886     4.504810
H     -4.961193     -1.329384     4.032160
C     -4.569399     -1.490727     1.871111
C     -3.728603     -1.226542     0.869928
H     -5.462306     -2.086134     1.703402
H     -3.924606     -1.605668    -0.130405
C     -2.476198     -0.444543     1.111172
C     -1.218949     -1.218398     1.608518
H     -2.228320      0.168644     0.239171
H     -1.571023     -2.074039     2.192934
C      0.065573      0.986478     2.009370
H     -0.439369      1.635553     1.281830
H      0.423875      1.640885     2.811845
C      1.247350      0.316870     1.297561
C      2.271318      1.326594     0.845034
H      1.731311     -0.361363     2.018341
H      2.543717      2.105116     1.556134
C      2.847761      1.316207    -0.356320
C      2.563684      0.280832    -1.420852
H      3.557022      2.098268    -0.618622
H      3.526255     -0.051376    -1.832188
C      1.778439      0.857979    -2.594289
C      0.904715      1.932927    -2.447555
C      1.915640      0.275956    -3.854116
C      0.184024      2.412798    -3.535722
H      0.789956      2.404662    -1.477273
C      1.196856      0.752464    -4.942452
H      2.597400     -0.560711    -3.984912
C      0.325768      1.824332    -4.785646
H     -0.491448      3.252422    -3.403580
H      1.319310      0.286578    -5.915385
H     -0.237666      2.200255    -5.633670
C     -0.139260     -1.673140     0.635777
H      0.509105     -2.397834     1.140752
H     -0.593191     -2.206447    -0.207434
C      0.713175     -0.511803     0.120833
C      1.837372     -0.956001    -0.836419
H      0.072054      0.153081    -0.473343
H      1.381759     -1.516133    -1.656129
C      2.784517     -1.961664    -0.182266
O      2.646238     -3.148641    -0.291863
O      3.809967     -1.472035     0.549363
H      3.782685     -0.503945     0.581216
49
 -1042.13572562 -1041.76514300  5.56 5.10
C     -0.793254     -1.260689     2.104529
C     -2.296490     -1.083218     2.469262
H     -0.385990     -2.110512     2.660877
H     -2.594614     -0.039995     2.323513
C     -2.761949     -1.582573     3.800315
C     -3.173657     -2.841466     3.956798
H     -2.721264     -0.906039     4.650655
H     -3.482525     -3.205182     4.932754
C     -3.216556     -3.773264     2.819488
C     -2.973156     -3.370304     1.570832
H     -3.462643     -4.812797     3.018481
H     -3.011970     -4.084481     0.750707
C     -2.655943     -1.945181     1.226196
C     -1.215415     -1.721948     0.682702
H     -3.445273     -1.536528     0.583639
H     -0.714787     -2.624134     0.322393
C      0.179798     -0.081532     2.147548
H     -0.357935      0.874978     2.121661
H      0.766879     -0.091103     3.071812
C      1.087038     -0.184057     0.917623
C      2.321239      0.679163     0.939353
H      1.428007     -1.230501     0.872865
H      2.805241      0.850235     1.899050
C      2.855664      1.188070    -0.164939
C      2.296862      0.990684    -1.555716
H      3.757074      1.793672    -0.099563
H      3.112584      0.609424    -2.179689
C      1.830311      2.297595    -2.187085
C      1.385597      3.377180    -1.426543
C      1.821735      2.417750    -3.577629
C      0.942201      4.543817    -2.039896
H      1.395137      3.308883    -0.343721
C      1.378469      3.580118    -4.193858
H      2.171264      1.587394    -4.186255
C      0.934750      4.649828    -3.424565
H      0.601378      5.374656    -1.429551
H      1.382384      3.651901    -5.277267
H      0.587950      5.561090    -3.901325
C     -1.109433     -0.593486    -0.341786
H     -1.349532     -0.970517    -1.339618
H     -1.874859      0.155337    -0.104779
C      0.263497      0.124955    -0.339873
C      1.155990     -0.053827    -1.585522
H      0.052888      1.200807    -0.310931
H      0.545784      0.103158    -2.481437
C      1.715545     -1.457787    -1.695616
O      2.859694     -1.786456    -1.521521
O      0.762714     -2.355156    -2.041511
H      1.199570     -3.217964    -2.092857
49
 -1042.13621010 -1041.76512300  5.26 5.11
C     -1.718554      0.362348     2.137795
C     -3.109174      0.335901     1.439941
H     -1.741634      0.401836     3.231171
H     -3.386910      1.276895     0.950458
C     -4.231892     -0.134572     2.317077
C     -4.913031     -1.256235     2.072173
H     -4.490599      0.485253     3.172993
H     -5.735288     -1.546766     2.720513
C     -4.596116     -2.121352     0.925439
C     -3.517239     -1.897779     0.173727
H     -5.260914     -2.952708     0.708998
H     -3.286757     -2.547321    -0.667678
C     -2.577600     -0.780114     0.499501
C     -1.458445     -1.051624     1.548192
H     -2.150961     -0.354333    -0.413919
H     -1.839657     -1.801811     2.247967
C     -0.782638      1.444655     1.586146
H     -1.106648      1.750039     0.581902
H     -0.841442      2.339967     2.215294
C      0.665525      0.950509     1.492917
C      1.615038      2.041810     1.083880
H      0.971933      0.600881     2.486079
H      1.525354      2.990180     1.611993
C      2.545344      1.914486     0.145106
C      2.783522      0.647374    -0.640866
H      3.183561      2.759144    -0.103605
H      3.869733      0.492373    -0.682791
C      2.307013      0.743565    -2.085381
C      1.232403      1.547348    -2.460725
C      2.941626     -0.018328    -3.066086
C      0.802364      1.583414    -3.781949
H      0.733358      2.155683    -1.713892
C      2.514313      0.013855    -4.387356
H      3.791144     -0.641681    -2.795728
C      1.438899      0.815821    -4.749447
H     -0.035800      2.216734    -4.056079
H      3.024543     -0.586181    -5.134547
H      1.100570      0.845678    -5.780235
C     -0.048188     -1.427523     1.111375
H      0.501948     -1.799364     1.982327
H     -0.093315     -2.247704     0.383504
C      0.711710     -0.237151     0.522884
C      2.134381     -0.576561     0.068677
H      0.192836      0.076115    -0.393548
H      2.073937     -1.396215    -0.659842
C      3.045228     -1.056251     1.193513
O      2.854397     -0.913626     2.366832
O      4.175244     -1.685886     0.778525
H      4.186878     -1.760779    -0.183223
49
 -1042.13525907 -1041.76484500  5.86 5.29
C      0.062951     -1.335935     2.789230
C     -1.116726     -1.149697     3.787183
H      0.783166     -2.119495     3.043855
H     -1.035303     -0.261118     4.424481
C     -1.411096     -2.357129     4.628157
C     -2.561413     -3.029226     4.541736
H     -0.647602     -2.670632     5.336999
H     -2.742475     -3.884165     5.187637
C     -3.619995     -2.637183     3.598748
C     -3.409410     -1.688189     2.685275
H     -4.578423     -3.144591     3.661220
H     -4.195823     -1.409205     1.987718
C     -2.074610     -1.022781     2.570216
C     -0.980460     -1.728685     1.715134
H     -2.186345      0.021727     2.263747
H     -1.166446     -2.805674     1.774996
C      0.780237     -0.022959     2.470974
H      0.119049      0.824865     2.696801
H      1.654205      0.089625     3.122163
C      1.203618      0.106932     1.004851
C      1.927413      1.407978     0.765524
H      1.875128     -0.727629     0.748868
H      2.313289      1.954502     1.622864
C      2.094659      1.870320    -0.465684
C      1.628831      1.052771    -1.644183
H      2.628883      2.796773    -0.655010
H      2.340527      0.227384    -1.761831
C      1.607886      1.820930    -2.951091
C      1.046026      3.096213    -3.019419
C      2.115885      1.251586    -4.116982
C      1.000838      3.790059    -4.221118
H      0.643349      3.551926    -2.118613
C      2.070373      1.942471    -5.322361
H      2.542859      0.253640    -4.079279
C      1.514278      3.214472    -5.378405
H      0.562684      4.783085    -4.255556
H      2.471460      1.483815    -6.221192
H      1.479486      3.755305    -6.318842
C     -0.723566     -1.343603     0.267810
H     -0.073582     -2.110641    -0.170048
H     -1.666958     -1.369889    -0.289931
C     -0.043715      0.023326     0.105412
C      0.236780      0.410965    -1.387065
H     -0.730970      0.791141     0.481578
H     -0.530047      1.130479    -1.684117
C      0.094253     -0.777262    -2.317618
O      0.944860     -1.602228    -2.537876
O     -1.122359     -0.833455    -2.901252
H     -1.125650     -1.620915    -3.465711
49
 -1042.13455926 -1041.76421500  6.29 5.68
C     -0.413749      0.685523     2.444942
C     -1.886762      1.050006     2.793196
H      0.151943      0.556480     3.372845
H     -2.335983      1.612564     1.968432
C     -2.155500      1.726004     4.100244
C     -2.372587      1.016864     5.208794
H     -2.131540      2.812543     4.136975
H     -2.537587      1.514427     6.160324
C     -2.389061     -0.453632     5.178214
C     -2.319997     -1.133638     4.032008
H     -2.467913     -0.984483     6.123081
H     -2.333366     -2.221685     4.043090
C     -2.237778     -0.461075     2.693730
C     -0.899255     -0.700084     1.937148
H     -3.133498     -0.697896     2.106825
H     -0.315000     -1.553555     2.288401
C      0.393646      1.510416     1.441382
H     -0.265368      2.120074     0.810051
H      1.070232      2.201381     1.955066
C      1.172067      0.531993     0.556745
C      2.276552      1.135950    -0.271405
H      1.641425     -0.193711     1.240940
H      2.838714      1.962846     0.158818
C      2.612070      0.670015    -1.469748
C      1.924882     -0.489155    -2.156139
H      3.425067      1.135705    -2.022893
H      2.702815     -1.186988    -2.481216
C      1.180878     -0.061895    -3.417499
C      0.962591     -1.000089    -4.427339
C      0.689726      1.229718    -3.595120
C      0.269583     -0.661960    -5.581861
H      1.344818     -2.010926    -4.307680
C     -0.003684      1.572624    -4.750900
H      0.857890      1.977205    -2.826953
C     -0.218241      0.629319    -5.747183
H      0.112914     -1.407680    -6.355324
H     -0.377325      2.584908    -4.871742
H     -0.759982      0.899216    -6.648094
C     -1.049835     -0.744044     0.416444
H     -1.290260     -1.762782     0.101246
H     -1.906764     -0.120360     0.134106
C      0.186988     -0.213844    -0.352700
C      0.966563     -1.238368    -1.200136
H     -0.179383      0.523060    -1.077164
H      0.252482     -1.818027    -1.794617
C      1.638604     -2.262903    -0.304025
O      1.041584     -3.000460     0.439840
O      2.983996     -2.297341    -0.399724
H      3.282384     -2.982260     0.216582
49
 -1042.13263925 -1041.76252300  7.50 6.75
C      2.247064     -0.942975    -1.882274
C      2.031802     -2.094550    -2.906877
H      3.157219     -0.350488    -2.017040
H      2.219857     -3.098066    -2.506948
C      2.767346     -1.914058    -4.202325
C      2.138243     -1.752986    -5.368824
H      3.854575     -1.930827    -4.166162
H      2.710825     -1.649940    -6.286657
C      0.670508     -1.726777    -5.461559
C     -0.087024     -1.708819    -4.363755
H      0.217470     -1.717009    -6.448783
H     -1.171507     -1.682821    -4.441646
C      0.538733     -1.675666    -3.005417
C      0.953752     -0.289388    -2.429093
H     -0.072993     -2.223998    -2.282590
H      1.210250      0.351484    -3.278541
C      2.115297     -1.408815    -0.430882
H      1.541260     -2.344582    -0.391659
H      3.106027     -1.640316    -0.024179
C      1.404035     -0.396930     0.471792
C      1.335145     -0.886480     1.896451
H      1.961630      0.552809     0.450776
H      1.983568     -1.705235     2.199204
C      0.506146     -0.320273     2.762428
C     -0.325709      0.865731     2.335855
H      0.456128     -0.645624     3.797351
H      0.357653      1.719465     2.270445
C     -1.414422      1.231798     3.325358
C     -1.599752      2.554451     3.721678
C     -2.269838      0.255582     3.836649
C     -2.612969      2.895616     4.610487
H     -0.944528      3.326274     3.327812
C     -3.281723      0.591496     4.725824
H     -2.138459     -0.780829     3.537004
C     -3.456886      1.914962     5.116173
H     -2.741747      3.931770     4.908586
H     -3.936834     -0.181861     5.115594
H     -4.247884      2.178796     5.811045
C      0.055351      0.478065    -1.472854
H      0.452200      1.496282    -1.386618
H     -0.949350      0.564877    -1.902574
C     -0.015650     -0.143524    -0.071256
C     -0.938048      0.638039     0.926211
H     -0.474080     -1.134681    -0.168127
H     -1.846834      0.045953     1.052004
C     -1.438754      1.947130     0.349087
O     -2.514045      2.106682    -0.166558
O     -0.546261      2.961769     0.456005
H     -0.966790      3.738492     0.059376
49
 -1042.12747137 -1041.75728600  10.74 10.03
C     -2.491048      0.207685     0.877207
C     -3.535689      0.415214    -0.257923
H     -3.019895     -0.026675     1.806137
H     -3.112874      1.054497    -1.039714
C     -4.906836      0.878435     0.119972
C     -5.858688      0.005318     0.452484
H     -5.102273      1.947497     0.156668
H     -6.843717      0.349207     0.755262
C     -5.602804     -1.442990     0.425871
C     -4.464887     -1.947074    -0.055979
H     -6.375184     -2.106395     0.805526
H     -4.305361     -3.023495    -0.060712
C     -3.372403     -1.087855    -0.619951
C     -2.047804     -1.116102     0.196834
H     -3.248254     -1.303903    -1.688038
H     -1.936152     -1.963113     0.876997
C     -1.378689      1.224136     1.142065
H     -1.249882      1.902346     0.288476
H     -1.618742      1.848347     2.009234
C     -0.081348      0.441205     1.371286
C      1.047836      1.226009     1.976951
H     -0.322092     -0.367489     2.070806
H      0.797235      1.973045     2.728362
C      2.324124      1.013090     1.677417
C      2.811715     -0.007418     0.674404
H      3.100969      1.602340     2.159804
H      3.572619     -0.610688     1.187212
C      3.510780      0.648271    -0.511559
C      3.099770      1.879194    -1.020503
C      4.575257     -0.004174    -1.132956
C      3.733623      2.437692    -2.123928
H      2.284481      2.410875    -0.541328
C      5.210492      0.549360    -2.237480
H      4.925847     -0.956999    -0.742589
C      4.788675      1.774551    -2.738565
H      3.400581      3.398451    -2.504316
H      6.038394      0.023930    -2.703367
H      5.281558      2.212854    -3.600404
C     -0.791270     -0.952617    -0.660395
H     -0.445962     -1.939297    -0.988052
H     -1.056904     -0.410317    -1.575894
C      0.356766     -0.175347     0.037402
C      1.669570     -0.950286     0.181710
H      0.608903      0.670197    -0.614772
H      1.957370     -1.322435    -0.811175
C      1.548276     -2.190677     1.060133
O      0.601732     -2.490678     1.729518
O      2.627463     -3.015252     1.036888
H      3.294722     -2.682467     0.424981
