49
 -1042.13746618 -1041.76639200  0.00 0.00
C      1.448810     -1.319137    -2.218807
C      1.844616     -2.784398    -1.860285
H      1.748203     -1.030484    -3.230440
H      2.554910     -2.856501    -1.028454
C      2.359802     -3.582314    -3.020726
C      1.682935     -4.598006    -3.558503
H      3.329445     -3.298573    -3.425061
H      2.103627     -5.153700    -4.392116
C      0.365606     -5.005390    -3.046965
C     -0.242318     -4.318424    -2.079750
H     -0.105750     -5.882709    -3.480916
H     -1.221803     -4.626751    -1.719945
C      0.369283     -3.090123    -1.480586
C     -0.047418     -1.717522    -2.093219
H      0.219031     -3.101623    -0.397700
H     -0.502906     -1.871478    -3.075272
C      1.868121     -0.236931    -1.227694
H      2.959593     -0.241053    -1.116622
H      1.595361      0.748673    -1.614029
C      1.227656     -0.437935     0.154699
C      1.804823      0.490669     1.189075
H      1.528234     -1.441961     0.484172
H      2.891977      0.529162     1.237119
C      1.096295      1.196563     2.058702
C     -0.412499      1.178812     2.087254
H      1.599514      1.795123     2.813135
H     -0.723778      0.354490     2.744526
C     -1.023382      2.448501     2.654271
C     -0.474221      3.703037     2.388448
C     -2.172862      2.376767     3.439481
C     -1.063045      4.854942     2.894124
H      0.418002      3.778901     1.775052
C     -2.764222      3.526873     3.947231
H     -2.609693      1.405898     3.660018
C     -2.210289      4.771925     3.674933
H     -0.623261      5.823538     2.676182
H     -3.658674      3.449443     4.557874
H     -2.668900      5.673222     4.069171
C     -0.899790     -0.762270    -1.273780
H     -0.998681      0.159947    -1.859266
H     -1.914978     -1.160575    -1.159080
C     -0.326012     -0.436691     0.120268
C     -0.983520      0.839013     0.689235
H     -0.649226     -1.230678     0.804798
H     -2.055707      0.648908     0.796938
C     -0.859932      2.031213    -0.242753
O      0.158471      2.471986    -0.708259
O     -2.063113      2.583518    -0.514740
H     -1.898339      3.344105    -1.091733
49
 -1042.13560001 -1041.76382400  1.17 1.61
C      0.227901     -2.311829    -0.561297
C      0.799435     -3.605687     0.091638
H     -0.472611     -2.623170    -1.342523
H      1.744252     -3.386251     0.599164
C      0.922652     -4.826553    -0.763468
C     -0.118311     -5.642294    -0.939129
H      1.864890     -5.017679    -1.271687
H     -0.039349     -6.510804    -1.586877
C     -1.401407     -5.387466    -0.266429
C     -1.535184     -4.430866     0.655145
H     -2.250724     -6.011599    -0.531046
H     -2.497274     -4.269810     1.137317
C     -0.392678     -3.559142     1.085580
C     -0.567054     -2.049899     0.743525
H     -0.147919     -3.759312     2.135755
H     -1.597423     -1.716345     0.610014
C      1.143113     -1.228236    -1.111100
H      1.940167     -1.690174    -1.706820
H      0.572633     -0.598816    -1.795015
C      1.795027     -0.324997    -0.041205
C      2.387657      0.894642    -0.699862
H      2.619224     -0.894750     0.411887
H      3.213201      0.727811    -1.389937
C      1.943887      2.130918    -0.511165
C      0.838524      2.494631     0.451769
H      2.425499      2.959423    -1.024442
H      1.331354      2.782020     1.392236
C      0.013612      3.697982     0.026645
C     -0.555671      4.514974     1.003070
C     -0.208436      4.007357    -1.313596
C     -1.329993      5.614022     0.654199
H     -0.387383      4.288834     2.053349
C     -0.978763      5.108260    -1.666870
H      0.208254      3.367529    -2.082943
C     -1.543116      5.915093    -0.685860
H     -1.764107      6.237532     1.429898
H     -1.143333      5.333746    -2.716219
H     -2.145775      6.773567    -0.965289
C      0.181380     -1.152597     1.733398
H     -0.495529     -0.841353     2.537166
H      0.969315     -1.747182     2.213636
C      0.874327      0.073952     1.127316
C     -0.043709      1.280125     0.825032
H      1.542224      0.462389     1.909424
H     -0.580479      1.519571     1.748079
C     -1.116517      1.009330    -0.210427
O     -0.983467      1.016050    -1.405092
O     -2.316585      0.765205     0.366915
H     -2.945731      0.611849    -0.353858
49
 -1042.13498991 -1041.76303900  1.55 2.10
C      2.255070     -0.833312     0.669011
C      3.156565      0.362118     0.230209
H      2.771671     -1.428529     1.427112
H      3.054703      0.564073    -0.839822
C      4.609732      0.279494     0.582136
C      5.098094      0.833577     1.691986
H      5.262783     -0.277247    -0.086473
H      6.153312      0.744164     1.934609
C      4.230575      1.576580     2.618332
C      2.942742      1.794451     2.349196
H      4.667928      1.955079     3.538158
H      2.323375      2.342447     3.056776
C      2.279487      1.312874     1.093948
C      1.251317      0.161430     1.313417
H      1.864190      2.169981     0.552480
H      1.042255     -0.034491     2.368837
C      1.654520     -1.750308    -0.385196
H      2.437265     -2.354418    -0.858640
H      0.991481     -2.456883     0.129704
C      0.840682     -1.019390    -1.481767
C     -0.155349     -1.983086    -2.083813
H      1.537288     -0.746200    -2.286884
H      0.249872     -2.948799    -2.384528
C     -1.452682     -1.756298    -2.249501
C     -2.119193     -0.451374    -1.893489
H     -2.087006     -2.541228    -2.655648
H     -2.787367     -0.173657    -2.716629
C     -3.008219     -0.576647    -0.654999
C     -4.023702      0.353303    -0.423880
C     -2.874934     -1.637537     0.240080
C     -4.855466      0.244179     0.683212
H     -4.168699      1.169185    -1.122494
C     -3.705381     -1.749843     1.348992
H     -2.113045     -2.390086     0.067855
C     -4.696568     -0.805063     1.579737
H     -5.636651      0.981904     0.840398
H     -3.575811     -2.582352     2.033705
H     -5.345104     -0.891522     2.445869
C     -0.058898      0.259189     0.537241
H     -0.677372     -0.604298     0.789110
H     -0.616235      1.146115     0.850115
C      0.195028      0.295514    -0.974190
C     -1.015129      0.631805    -1.857715
H      0.912404      1.099161    -1.157679
H     -0.629052      0.649534    -2.888442
C     -1.571876      2.036148    -1.716575
O     -2.564778      2.431797    -2.273830
O     -0.807044      2.865495    -0.973825
H     -1.236778      3.732970    -1.006206
49
 -1042.13556412 -1041.76295400  1.19 2.16
C      2.436513      0.674434     0.758910
C      2.932810      2.135602     0.966890
H      2.688358     -0.036792     1.551167
H      3.798699      2.412137     0.353356
C      3.182187      2.508582     2.398828
C      2.474723      3.449182     3.029027
H      3.983971      1.988668     2.918938
H      2.705606      3.705786     4.059461
C      1.384215      4.176752     2.361794
C      0.957493      3.814868     1.150776
H      0.929831      5.014292     2.883365
H      0.145821      4.354434     0.668110
C      1.552860      2.633001     0.453964
C      0.989525      1.221706     0.797720
H      1.566133      2.785707    -0.629556
H      0.653289      1.256075     1.839144
C      2.822833      0.127761    -0.616039
H      3.019962      0.967441    -1.294802
H      3.762214     -0.433084    -0.547421
C      1.741694     -0.735726    -1.274114
C      1.516149     -2.068243    -0.603538
H      2.096916     -0.952993    -2.293374
H      2.364802     -2.527041    -0.099373
C      0.359624     -2.720979    -0.642303
C     -0.886195     -2.226474    -1.339173
H      0.277586     -3.691967    -0.158555
H     -1.135810     -2.971705    -2.105649
C     -2.098251     -2.201322    -0.405338
C     -3.384189     -2.266341    -0.945218
C     -1.974077     -2.186088     0.983000
C     -4.508402     -2.267427    -0.130846
H     -3.509056     -2.326565    -2.021215
C     -3.096280     -2.190089     1.803763
H     -0.988408     -2.180844     1.435325
C     -4.369427     -2.221489     1.250843
H     -5.496318     -2.313382    -0.579167
H     -2.970726     -2.171046     2.881928
H     -5.245422     -2.222055     1.891688
C     -0.080261      0.546731    -0.045233
H     -0.463407     -0.294411     0.530741
H     -0.923922      1.223416    -0.196941
C      0.414573      0.029999    -1.401144
C     -0.568817     -0.909656    -2.119198
H      0.583653      0.889419    -2.062655
H     -0.061924     -1.245702    -3.032124
C     -1.810542     -0.198686    -2.614781
O     -2.278609      0.825291    -2.194408
O     -2.358770     -0.848476    -3.673300
H     -3.133226     -0.332703    -3.943276
49
 -1042.13427215 -1041.76283600  2.00 2.23
C      0.980093     -1.387328    -2.408646
C      1.040885     -2.929689    -2.186169
H      1.293938     -1.087520    -3.412555
H      1.748361     -3.233017    -1.405743
C      1.311083     -3.719112    -3.432215
C      0.396053     -4.501932    -4.005625
H      2.303728     -3.630007    -3.869097
H      0.643097     -5.063814    -4.902248
C     -0.958943     -4.640672    -3.450916
C     -1.352152     -3.921784    -2.399465
H     -1.638256     -5.344719    -3.923170
H     -2.361711     -4.028409    -2.007980
C     -0.448544     -2.924476    -1.742988
C     -0.560837     -1.443210    -2.219312
H     -0.553130     -3.000438    -0.657314
H     -1.082734     -1.398708    -3.179035
C      1.680186     -0.518289    -1.367657
H      2.747218     -0.770281    -1.330778
H      1.618030      0.532337    -1.664598
C      1.078257     -0.692331     0.035577
C      1.900627     -0.011283     1.096431
H      1.161636     -1.763256     0.265045
H      2.969705     -0.217900     1.073384
C      1.411703      0.750156     2.065128
C     -0.059733      1.053185     2.203702
H      2.073783      1.147688     2.829974
H     -0.498596      0.257090     2.821974
C     -0.351371      2.365329     2.911242
C     -1.470574      2.475433     3.734711
C      0.460846      3.485661     2.738802
C     -1.775227      3.672320     4.370581
H     -2.111669      1.610085     3.883052
C      0.160113      4.684552     3.372883
H      1.336770      3.418799     2.101739
C     -0.959566      4.783137     4.190503
H     -2.651095      3.736437     5.009031
H      0.803933      5.546542     3.226143
H     -1.194204      5.720356     4.685149
C     -1.125555     -0.394301    -1.275402
H     -1.022003      0.575791    -1.776065
H     -2.201648     -0.544360    -1.131290
C     -0.436519     -0.348848     0.103232
C     -0.785399      0.965769     0.839950
H     -0.895049     -1.125973     0.726629
H     -1.862227      0.958267     1.031455
C     -0.599965      2.218069     0.003088
O     -1.496322      2.957885    -0.312487
O      0.674012      2.449625    -0.377735
H      0.658974      3.277145    -0.880912
49
 -1042.13373383 -1041.76132400  2.34 3.18
C     -0.424532      2.026215     1.607197
C     -1.809071      2.711186     1.801689
H      0.124240      1.781470     2.521424
H     -1.817510      3.786453     1.586277
C     -2.447411      2.452366     3.134915
C     -3.594332      1.781127     3.263230
H     -1.945076      2.847787     4.015230
H     -4.034814      1.638098     4.246320
C     -4.306246      1.232242     2.098969
C     -3.752765      1.248380     0.885268
H     -5.293983      0.807360     2.253264
H     -4.284028      0.834596     0.031199
C     -2.374115      1.792100     0.683144
C     -1.167711      0.841850     0.945225
H     -2.281920      2.264420    -0.299760
H     -1.477291      0.138581     1.725102
C      0.459748      2.788034     0.619968
H     -0.172743      3.416604    -0.020010
H      1.122000      3.474891     1.159591
C      1.282017      1.887451    -0.307241
C      2.381939      1.121020     0.386655
H      1.772546      2.555028    -1.032040
H      2.830781      1.576872     1.267352
C      2.853627     -0.042560    -0.048570
C      2.355241     -0.764700    -1.277567
H      3.666408     -0.524725     0.490357
H      3.208744     -0.861560    -1.961070
C      1.929292     -2.203409    -0.974689
C      1.901681     -3.146618    -2.004680
C      1.631837     -2.637583     0.316507
C      1.544074     -4.465699    -1.760414
H      2.168145     -2.848108    -3.013079
C      1.275333     -3.957977     0.565989
H      1.687477     -1.939927     1.145121
C      1.221174     -4.876938    -0.473138
H      1.526358     -5.177085    -2.580641
H      1.042012     -4.267194     1.580159
H      0.940920     -5.907497    -0.279485
C     -0.487294      0.069073    -0.173979
H      0.140941     -0.689666     0.289681
H     -1.236959     -0.470891    -0.755146
C      0.381766      0.926221    -1.104219
C      1.324251      0.134784    -2.030168
H     -0.274252      1.532926    -1.741155
H      1.943107      0.883414    -2.538263
C      0.686377     -0.597811    -3.191908
O      1.275464     -0.865252    -4.210222
O     -0.609256     -0.922369    -3.018283
H     -0.886191     -1.382981    -3.824102
49
 -1042.13303402 -1041.76088100  2.78 3.46
C      0.654358      1.526300     1.737989
C      1.723140      2.642677     1.934144
H     -0.108254      1.670658     2.510015
H      2.665930      2.350813     1.460518
C      1.956192      3.153257     3.320505
C      1.180118      4.110282     3.832163
H      2.745113      2.704137     3.919258
H      1.327165      4.458214     4.850714
C      0.102645      4.717333     3.035633
C     -0.046574      4.452228     1.735702
H     -0.574789      5.406723     3.532346
H     -0.851986      4.920394     1.173441
C      0.874667      3.534583     0.987460
C      0.195489      2.243610     0.442717
H      1.435273      4.103562     0.235945
H     -0.883363      2.302169     0.292525
C      1.043692      0.057524     1.681580
H      1.731790     -0.171874     2.504778
H      0.155827     -0.552698     1.852364
C      1.698922     -0.386231     0.356812
C      1.754018     -1.891275     0.285465
H      2.734023     -0.015656     0.365912
H      2.382674     -2.395314     1.017953
C      1.075094     -2.620537    -0.591908
C      0.207891     -2.040512    -1.684008
H      1.182925     -3.702263    -0.585466
H      0.843071     -1.989474    -2.581067
C     -0.983253     -2.902042    -2.074405
C     -1.547146     -3.838770    -1.211423
C     -1.541924     -2.746770    -3.343384
C     -2.638799     -4.601981    -1.607961
H     -1.137023     -3.961404    -0.215353
C     -2.636109     -3.503022    -3.742092
H     -1.111753     -2.022573    -4.030825
C     -3.188576     -4.436985    -2.873382
H     -3.065910     -5.325691    -0.920227
H     -3.055049     -3.365150    -4.734247
H     -4.042715     -5.032433    -3.180075
C      0.898907      1.721359    -0.814653
H      0.388918      2.100901    -1.706807
H      1.914681      2.136642    -0.844154
C      1.056046      0.198211    -0.913637
C     -0.190711     -0.572343    -1.405765
H      1.784585      0.020619    -1.717440
H     -0.488808     -0.113269    -2.353128
C     -1.427948     -0.401257    -0.547823
O     -2.262948      0.447059    -0.738773
O     -1.544820     -1.292390     0.455542
H     -2.384698     -1.097344     0.896518
49
 -1042.13222654 -1041.76040500  3.29 3.76
C      0.970940     -2.029283    -0.609884
C      0.832883     -3.554288    -0.878025
H      0.809336     -1.384814    -1.475414
H      1.779660     -4.105946    -0.828691
C      0.119084     -3.885452    -2.155439
C     -1.071760     -4.487305    -2.181950
H      0.614817     -3.616386    -3.085830
H     -1.543195     -4.721843    -3.132538
C     -1.777676     -4.861321    -0.947142
C     -1.311283     -4.499999     0.249061
H     -2.696089     -5.435087    -1.032980
H     -1.849459     -4.771876     1.154369
C     -0.069589     -3.675413     0.379387
C     -0.221422     -2.121636     0.377529
H      0.508463     -3.995775     1.251971
H     -1.159444     -1.857190    -0.112615
C      2.228252     -1.624299     0.137840
H      2.435455     -2.368056     0.918274
H      3.099127     -1.629059    -0.527602
C      2.095236     -0.235886     0.799458
C      2.449404      0.885357    -0.145035
H      2.871474     -0.207799     1.577367
H      3.298785      0.708230    -0.802103
C      1.850734      2.066834    -0.161040
C      0.692588      2.376139     0.754492
H      2.205005      2.854301    -0.819156
H      1.109183      2.632770     1.739158
C     -0.153663      3.560149     0.322915
C     -0.695343      4.407080     1.289654
C     -0.426397      3.822284    -1.019575
C     -1.491875      5.487126     0.930633
H     -0.486958      4.220050     2.340248
C     -1.221333      4.902298    -1.382159
H     -0.026272      3.165833    -1.784393
C     -1.757980      5.738500    -0.409849
H     -1.903319      6.134012     1.699571
H     -1.425089      5.089926    -2.432190
H     -2.379601      6.580986    -0.696274
C     -0.030332     -1.368255     1.694630
H     -0.994987     -1.185210     2.180603
H      0.545549     -1.998393     2.382932
C      0.729753     -0.038001     1.535412
C     -0.158800      1.108946     0.987223
H      0.972874      0.301531     2.549431
H     -0.902812      1.330503     1.758074
C     -0.955109      0.748099    -0.253375
O     -0.540650      0.652885    -1.377844
O     -2.262613      0.546218     0.038599
H     -2.705546      0.338519    -0.797731
49
 -1042.13159850 -1041.75978700  3.68 4.14
C      0.620249     -2.161202    -0.828822
C     -0.525247     -3.217923    -0.803486
H      0.962073     -2.020234    -1.858079
H     -0.547435     -3.719658     0.169272
C     -0.583945     -4.220395    -1.912302
C     -1.256517     -3.966841    -3.035732
H     -0.031970     -5.150452    -1.798666
H     -1.270171     -4.689037    -3.847176
C     -1.991992     -2.705267    -3.212045
C     -2.122007     -1.823502    -2.218961
H     -2.440471     -2.505003    -4.181327
H     -2.669255     -0.897049    -2.381847
C     -1.548604     -2.050612    -0.851932
C     -0.409320     -1.061533    -0.465136
H     -2.360272     -2.108166    -0.117098
H     -0.358228     -0.180487    -1.100091
C      1.803418     -2.288912     0.123638
H      1.554283     -2.964477     0.951572
H      2.671749     -2.723825    -0.383312
C      2.158761     -0.920386     0.721947
C      2.524535      0.098608    -0.331086
H      3.045758     -1.054801     1.358920
H      3.111559     -0.259743    -1.175362
C      2.206452      1.387873    -0.278531
C      1.440563      2.037943     0.849268
H      2.525644      2.047253    -1.083026
H      2.057997      2.868664     1.215594
C      0.133729      2.684586     0.386576
C     -0.408209      2.444522    -0.873581
C     -0.517196      3.607117     1.209303
C     -1.588128      3.058509    -1.279604
H      0.103165      1.777400    -1.556552
C     -1.696046      4.221613     0.811089
H     -0.091140      3.862260     2.173114
C     -2.244515      3.942417    -0.434987
H     -1.991028      2.844642    -2.264831
H     -2.182471      4.929574     1.475337
H     -3.166633      4.420523    -0.749815
C     -0.393551     -0.672744     1.012864
H     -1.040174      0.192281     1.173467
H     -0.847293     -1.486866     1.589558
C      1.014031     -0.416063     1.618831
C      1.347794      1.025731     2.025556
H      1.060807     -0.997564     2.546200
H      2.368189      0.993079     2.429845
C      0.501273      1.501173     3.187104
O     -0.551429      1.046927     3.547712
O      1.101702      2.520932     3.853392
H      0.519521      2.749114     4.593227
49
 -1042.13170616 -1041.75884700  3.61 4.73
C     -0.543699      0.263513     2.588483
C      0.517679      0.518968     3.698322
H     -1.441124      0.887706     2.629777
H      0.543822     -0.244226     4.485341
C      0.453329      1.886057     4.313868
C      1.445087      2.772338     4.198769
H     -0.439919      2.137239     4.881872
H      1.367311      3.742625     4.681893
C      2.670233      2.471747     3.442259
C      2.770702      1.360461     2.711191
H      3.491219      3.181440     3.489534
H      3.678193      1.149112     2.150244
C      1.622026      0.407700     2.610759
C      0.517981      0.703483     1.552329
H      1.977974     -0.622610     2.514195
H      0.468331      1.790530     1.433905
C     -0.906648     -1.216589     2.464595
H     -0.103251     -1.824281     2.900290
H     -1.805218     -1.434306     3.053233
C     -1.099385     -1.690767     1.020654
C     -2.302106     -1.096018     0.331126
H     -1.253975     -2.779428     1.066877
H     -3.142601     -0.788849     0.950543
C     -2.385082     -0.953047    -0.986931
C     -1.313316     -1.377918    -1.971750
H     -3.284507     -0.518652    -1.416082
H     -1.747555     -2.176225    -2.587730
C     -1.033878     -0.249914    -2.968051
C     -2.063459      0.075962    -3.855284
C      0.159143      0.458909    -3.071437
C     -1.918156      1.083171    -4.796649
H     -2.999489     -0.474569    -3.806753
C      0.312565      1.468672    -4.016620
H      0.998507      0.233909    -2.427214
C     -0.723629      1.790685    -4.879975
H     -2.738071      1.313272    -5.470170
H      1.255503      2.004293    -4.073945
H     -0.601584      2.579796    -5.614912
C      0.527928      0.055233     0.175701
H     -0.191906      0.595245    -0.445629
H      1.513970      0.196604    -0.276886
C      0.160172     -1.435074     0.174520
C     -0.125791     -2.031506    -1.217659
H      0.986026     -2.002601     0.617365
H     -0.465166     -3.057896    -1.021539
C      1.054968     -2.269163    -2.138750
O      0.961149     -2.735448    -3.243700
O      2.253924     -1.960262    -1.593330
H      2.921767     -2.189323    -2.256646
49
 -1042.13018092 -1041.75828900  4.57 5.08
C      0.075457      0.835768    -2.240965
C     -1.300404      1.360180    -2.751776
H      0.809446      1.645431    -2.283539
H     -1.885258      0.530705    -3.162316
C     -1.307174      2.523994    -3.691702
C     -1.339094      3.776985    -3.235861
H     -1.246548      2.327316    -4.759492
H     -1.314916      4.616910    -3.924429
C     -1.401753      4.058801    -1.793577
C     -1.556521      3.085678    -0.893706
H     -1.324844      5.093306    -1.470120
H     -1.595798      3.326012     0.166921
C     -1.694218      1.641954    -1.276002
C     -0.510920      0.742640    -0.809970
H     -2.682503      1.274171    -0.975750
H      0.115027      1.201042    -0.047850
C      0.660137     -0.457485    -2.796392
H     -0.118453     -1.039533    -3.305302
H      1.433184     -0.250574    -3.544487
C      1.228704     -1.321592    -1.662460
C      2.322665     -0.627666    -0.885013
H      1.677498     -2.216322    -2.118922
H      3.007310     -0.001645    -1.455103
C      2.515051     -0.756243     0.423928
C      1.677685     -1.625422     1.331459
H      3.337743     -0.222446     0.895229
H      2.361720     -2.315988     1.841715
C      0.997496     -0.834863     2.450850
C      0.911920      0.555286     2.428603
C      0.501140     -1.500729     3.575044
C      0.303314      1.257202     3.463076
H      1.338699      1.102599     1.597272
C     -0.107625     -0.804666     4.610259
H      0.600130     -2.577879     3.650669
C     -0.219198      0.579488     4.555455
H      0.243769      2.340127     3.413264
H     -0.488825     -1.348492     5.469379
H     -0.695858      1.125241     5.363565
C     -0.923258     -0.671680    -0.396540
H     -1.162245     -0.676803     0.668690
H     -1.858386     -0.923782    -0.909103
C      0.097973     -1.795973    -0.731653
C      0.764053     -2.519309     0.448107
H     -0.453911     -2.566062    -1.281224
H      1.458802     -3.238551    -0.003948
C     -0.140333     -3.416073     1.268813
O      0.265244     -4.301086     1.981307
O     -1.458026     -3.173964     1.121569
H     -1.918095     -3.816011     1.682031
49
 -1042.12971437 -1041.75775700  4.86 5.42
C      1.980827     -0.906164    -0.804856
C      3.004935     -1.084336    -1.960815
H      2.165855     -0.055424    -0.147147
H      3.657939     -1.958507    -1.848821
C      3.834114      0.135427    -2.236021
C      3.736875      0.833651    -3.369085
H      4.538674      0.441432    -1.465461
H      4.370144      1.701840    -3.530580
C      2.792576      0.457340    -4.431822
C      1.909615     -0.525978    -4.252200
H      2.826213      1.006744    -5.368318
H      1.207674     -0.786124    -5.041329
C      1.824946     -1.264568    -2.953599
C      0.860792     -0.707328    -1.859997
H      1.617702     -2.324167    -3.133991
H      0.673461      0.350382    -2.051627
C      1.708033     -2.156362     0.010492
H      1.664126     -3.020756    -0.664636
H      2.527811     -2.355860     0.710167
C      0.378093     -2.066511     0.787939
C      0.534072     -1.369655     2.116067
H      0.119415     -3.103736     1.043537
H      1.438635     -1.601089     2.675890
C     -0.383422     -0.584766     2.661844
C     -1.675597     -0.264251     1.953455
H     -0.237460     -0.184448     3.660868
H     -2.356370     -1.111196     2.122888
C     -2.394183      0.970648     2.468583
C     -1.706284      2.082804     2.952487
C     -3.788146      1.012031     2.443400
C     -2.394473      3.205176     3.396669
H     -0.622238      2.072709     2.977015
C     -4.480076      2.132621     2.884506
H     -4.340391      0.151178     2.074788
C     -3.783563      3.235760     3.363347
H     -1.840676      4.062027     3.768653
H     -5.565438      2.142799     2.855811
H     -4.319683      4.113867     3.709333
C     -0.435015     -1.469158    -1.576880
H     -1.266852     -1.037913    -2.143773
H     -0.323351     -2.502176    -1.927016
C     -0.802243     -1.521916    -0.081509
C     -1.465862     -0.212279     0.423699
H     -1.610889     -2.256134     0.011484
H     -2.449095     -0.161508    -0.052470
C     -0.808110      1.069254    -0.052050
O     -1.242477      1.747142    -0.950011
O      0.312134      1.415961     0.611131
H      0.607236      2.251512     0.219960
49
 -1042.12664595 -1041.75435700  6.79 7.55
C      1.837612     -0.909282    -1.139883
C      3.365899     -1.047915    -1.385709
H      1.410715     -1.614029    -0.422660
H      3.625915     -1.450908    -2.372223
C      4.089828     -1.813605    -0.317585
C      4.986422     -1.248189     0.493186
H      3.859858     -2.872767    -0.222573
H      5.498490     -1.846888     1.241662
C      5.321011      0.180943     0.401393
C      4.647679      0.994705    -0.413057
H      6.127991      0.561306     1.021128
H      4.896084      2.052486    -0.462760
C      3.507045      0.491482    -1.240291
C      2.079190      0.527816    -0.610839
H      3.501094      0.983540    -2.218004
H      2.170026      0.544626     0.475555
C      0.991282     -0.854321    -2.398098
H      1.498415     -0.230592    -3.145383
H      0.887579     -1.848406    -2.847906
C     -0.407558     -0.268875    -2.117584
C     -1.345336     -1.318075    -1.577094
H     -0.813622      0.019353    -3.097066
H     -1.239473     -2.321044    -1.986404
C     -2.289392     -1.078263    -0.680596
C     -2.485154      0.304375    -0.096386
H     -2.939823     -1.879029    -0.345224
H     -2.990576      0.906837    -0.868369
C     -3.419642      0.324297     1.106669
C     -4.655589     -0.319690     0.990052
C     -3.142451      0.992368     2.297365
C     -5.569596     -0.322612     2.031977
H     -4.907312     -0.820782     0.059810
C     -4.058884      0.991693     3.346162
H     -2.212506      1.531689     2.433610
C     -5.271608      0.331402     3.223516
H     -6.519781     -0.834755     1.913461
H     -3.815637      1.516969     4.265009
H     -5.982877      0.330704     4.043324
C      1.082622      1.574317    -1.111895
H      1.083442      2.450961    -0.456203
H      1.401664      1.925242    -2.100411
C     -0.354915      1.036081    -1.253464
C     -1.118542      0.980505     0.102304
H     -0.912681      1.794779    -1.814068
H     -1.277285      2.022546     0.393709
C     -0.308158      0.426852     1.260745
O      0.306289      1.126449     2.030098
O     -0.334763     -0.909292     1.394081
H      0.197006     -1.115004     2.176916
49
 -1042.12434912 -1041.75207700  8.23 8.98
C     -1.381842     -1.047839     2.373427
C     -1.354802     -2.437097     3.075737
H     -1.674714     -0.201989     3.002400
H     -2.197070     -3.091161     2.820228
C     -1.190269     -2.373864     4.566011
C     -0.116866     -2.863668     5.190912
H     -1.994959     -1.918156     5.139083
H     -0.049936     -2.818747     6.274608
C      0.991532     -3.489753     4.454085
C      1.038134     -3.452285     3.121439
H      1.775865     -3.980157     5.023517
H      1.864522     -3.912482     2.584664
C     -0.018469     -2.736144     2.341746
C      0.139751     -1.199552     2.139516
H     -0.197805     -3.231366     1.382602
H      0.674272     -0.811968     3.012540
C     -2.180714     -1.070316     1.069523
H     -2.258045     -2.104636     0.711142
H     -3.207191     -0.733707     1.252554
C     -1.558074     -0.245038    -0.057917
C     -1.494823      1.242704     0.186278
H     -2.173090     -0.417547    -0.952489
H     -1.872425      1.664473     1.113747
C     -0.896168      1.988758    -0.734740
C     -0.417027      1.289412    -1.989324
H     -0.737171      3.052516    -0.607000
H     -1.315157      0.852426    -2.450297
C      0.166234      2.195918    -3.065536
C      1.141948      1.761179    -3.962752
C     -0.345277      3.484157    -3.233122
C      1.612750      2.596061    -4.970554
H      1.552390      0.759510    -3.895397
C      0.121958      4.320426    -4.237882
H     -1.131629      3.839325    -2.575180
C      1.110708      3.881991    -5.110878
H      2.376914      2.232198    -5.651039
H     -0.292394      5.318971    -4.340267
H      1.479219      4.533956    -5.896430
C      0.758817     -0.614997     0.881337
H      0.960451      0.442844     1.073591
H      1.726226     -1.097197     0.701362
C     -0.122662     -0.725429    -0.374702
C      0.456122      0.063640    -1.607525
H     -0.174501     -1.780671    -0.664503
H      0.472538     -0.623483    -2.456540
C      1.915527      0.410871    -1.387525
O      2.831466     -0.324695    -1.657828
O      2.113908      1.630141    -0.848095
H      3.071825      1.742468    -0.764524
