49
 -1042.14283144 -1041.77026700  0.00 0.00
C      0.207065     -2.829056     1.522726
C      0.293102     -3.850540     0.334906
H      0.227384     -3.294406     2.513174
H      0.721014     -4.787737     0.703095
C     -0.910326     -4.140460    -0.505785
C     -1.153481     -3.457392    -1.625487
H     -1.595918     -4.918476    -0.177994
H     -2.034871     -3.670722    -2.223734
C     -0.257694     -2.377027    -2.067503
C      0.898620     -2.125921    -1.449241
H     -0.563131     -1.774782    -2.919174
H      1.534595     -1.311707    -1.789342
C      1.394989     -2.967244    -0.309245
C      1.582726     -2.263732     1.068148
H      2.286899     -3.511292    -0.641560
H      2.379417     -2.793039     1.601203
C     -0.943108     -1.819372     1.457930
H     -1.315043     -1.720233     0.434518
H     -1.783719     -2.182848     2.059386
C     -0.503380     -0.430439     1.935117
C     -1.665864      0.517407     2.054780
H     -0.061579     -0.537385     2.940000
H     -2.570202      0.128088     2.519768
C     -1.643110      1.779279     1.644790
C     -0.448724      2.432492     0.996978
H     -2.531625      2.398002     1.749043
H     -0.285321      3.396766     1.491729
C     -0.712334      2.733975    -0.475592
C     -0.270304      3.935789    -1.025811
C     -1.384081      1.832940    -1.300773
C     -0.483994      4.231102    -2.366484
H      0.247779      4.653452    -0.395294
C     -1.602699      2.125214    -2.640738
H     -1.753983      0.899856    -0.888032
C     -1.150871      3.324170    -3.180154
H     -0.131088      5.173658    -2.773611
H     -2.131113      1.412973    -3.267314
H     -1.321951      3.550570    -4.227844
C      1.846507     -0.764234     1.171747
H      2.256909     -0.555198     2.169879
H      2.611574     -0.476306     0.446661
C      0.587964      0.090931     0.989108
C      0.832741      1.579910     1.236493
H      0.233561     -0.022100    -0.038940
H      1.117360      1.726068     2.285828
C      1.957686      2.134060     0.386607
O      2.366385      1.677419    -0.648428
O      2.470362      3.269395     0.918283
H      3.154873      3.578138     0.306186
49
 -1042.14290322 -1041.76987100  -0.05 0.25
C     -1.353194      0.397877     2.859816
C     -0.302014     -0.352426     3.752728
H     -2.203112      0.800008     3.419704
H     -0.426076     -0.033546     4.791867
C     -0.183068     -1.843149     3.692683
C      0.674133     -2.437128     2.860754
H     -0.824663     -2.440031     4.336825
H      0.743497     -3.520521     2.818463
C      1.527609     -1.649514     1.956992
C      1.585458     -0.317702     2.030875
H      2.114905     -2.178959     1.210938
H      2.218543      0.240263     1.344502
C      0.826363      0.461984     3.065297
C     -0.256493      1.457188     2.548412
H      1.545671      0.924414     3.751217
H     -0.331007      2.273372     3.274450
C     -1.867029     -0.372036     1.637509
H     -1.188825     -1.191425     1.384446
H     -2.832868     -0.831858     1.874380
C     -1.990426      0.526622     0.400734
C     -2.634166     -0.198267    -0.750104
H     -2.638767      1.380626     0.657279
H     -3.535724     -0.766867    -0.527363
C     -2.174697     -0.177682    -1.994976
C     -0.941612      0.579125    -2.419385
H     -2.681483     -0.749665    -2.768898
H     -1.175348      1.111010    -3.348554
C      0.215493     -0.367635    -2.728916
C      0.469814     -1.497966    -1.952097
C      1.056544     -0.101486    -3.807847
C      1.541247     -2.332326    -2.243043
H     -0.183984     -1.737199    -1.120270
C      2.131241     -0.931983    -4.100859
H      0.868040      0.769256    -4.430270
C      2.379049     -2.050918    -3.316295
H      1.720515     -3.211414    -1.630940
H      2.773212     -0.704280    -4.946242
H      3.216265     -2.703930    -3.541680
C     -0.175113      2.057329     1.147931
H     -0.843545      2.928562     1.101530
H      0.838672      2.421924     0.966226
C     -0.595786      1.069608     0.056213
C     -0.582926      1.657339    -1.353918
H      0.105611      0.232018     0.062848
H     -1.341867      2.445759    -1.430272
C      0.750122      2.279756    -1.715062
O      1.814884      2.040613    -1.208772
O      0.627950      3.158572    -2.738307
H      1.518953      3.486690    -2.930550
49
 -1042.14127031 -1041.76802000  0.98 1.41
C     -2.622400     -1.734881     0.503554
C     -2.278898     -2.983168    -0.384016
H     -3.598662     -1.794030     0.994395
H     -2.901960     -3.825530    -0.069204
C     -2.288989     -2.876857    -1.876960
C     -1.183761     -2.568868    -2.557620
H     -3.227188     -3.043525    -2.401149
H     -1.206124     -2.483386    -3.640410
C      0.088179     -2.308451    -1.864922
C      0.224550     -2.507719    -0.551985
H      0.927481     -1.940019    -2.449655
H      1.175478     -2.301706    -0.066190
C     -0.886057     -3.052920     0.298161
C     -1.435145     -2.129876     1.428103
H     -0.596067     -4.047690     0.656089
H     -1.806585     -2.775245     2.230834
C     -2.475085     -0.368950    -0.176359
H     -1.839766     -0.445114    -1.062877
H     -3.455238     -0.027347    -0.526925
C     -1.848320      0.674945     0.755992
C     -1.848576      2.044983     0.132681
H     -2.456414      0.729206     1.673894
H     -2.773636      2.364326    -0.344736
C     -0.807020      2.867259     0.138654
C      0.516757      2.534159     0.777748
H     -0.876441      3.832890    -0.356917
H      0.836640      3.399756     1.369213
C      1.599268      2.289922    -0.270622
C      2.894943      2.753684    -0.048097
C      1.334108      1.598957    -1.453082
C      3.904523      2.527504    -0.975845
H      3.118467      3.297217     0.866043
C      2.340351      1.372024    -2.382871
H      0.328532      1.245379    -1.655305
C      3.630609      1.833066    -2.147140
H      4.906699      2.897473    -0.782076
H      2.115002      0.836074    -3.300184
H      4.415808      1.654990    -2.875099
C     -0.577110     -1.030082     2.047946
H     -1.046363     -0.712820     2.989530
H      0.403762     -1.437271     2.307006
C     -0.439563      0.200163     1.144928
C      0.346889      1.350869     1.775330
H      0.079683     -0.095825     0.230447
H     -0.210090      1.740376     2.634937
C      1.715985      0.995078     2.317107
O      2.261502      1.589147     3.212665
O      2.318813     -0.027282     1.673047
H      3.201425     -0.110884     2.061937
49
 -1042.13242392 -1041.76015900  6.53 6.34
C     -2.309657     -1.979488    -0.866550
C     -3.666238     -1.627747    -0.184928
H     -2.485460     -2.717841    -1.655296
H     -4.440708     -2.385850    -0.347461
C     -3.633406     -1.287944     1.276822
C     -3.969776     -0.082911     1.740218
H     -3.364378     -2.081177     1.970675
H     -3.974957      0.108169     2.809986
C     -4.339898      1.019112     0.838324
C     -4.247003      0.888163    -0.485620
H     -4.676808      1.953105     1.279122
H     -4.498058      1.721669    -1.137511
C     -3.773913     -0.384755    -1.114158
C     -2.260095     -0.555537    -1.485010
H     -4.386089     -0.612302    -1.992142
H     -2.064990     -0.540757    -2.561975
C     -1.059557     -2.377201    -0.083472
H     -1.100681     -2.013425     0.948973
H     -0.954964     -3.466478    -0.038459
C      0.133763     -1.732270    -0.795341
C      1.482328     -2.319837    -0.480984
H     -0.028184     -1.881614    -1.875743
H      1.535775     -3.383709    -0.257653
C      2.599745     -1.604136    -0.527308
C      2.654872     -0.127324    -0.838035
H      3.555351     -2.077292    -0.312143
H      3.352726      0.013777    -1.671825
C      3.230806      0.651889     0.342427
C      2.909841      0.328056     1.659620
C      4.098964      1.718397     0.112395
C      3.438288      1.055054     2.718661
H      2.251940     -0.511091     1.860774
C      4.628467      2.448877     1.168695
H      4.360073      1.985266    -0.907928
C      4.298448      2.119778     2.477532
H      3.177999      0.786829     3.738042
H      5.302457      3.275898     0.967236
H      4.711031      2.687205     3.305768
C     -1.291076      0.380439    -0.761076
H     -1.231152      1.323414    -1.312592
H     -1.707904      0.639133     0.214621
C      0.121979     -0.221455    -0.524143
C      1.268955      0.406212    -1.323178
H      0.354773     -0.080984     0.536421
H      1.169107      0.122941    -2.376319
C      1.305009      1.919957    -1.327378
O      1.746805      2.583829    -2.231635
O      0.823626      2.480428    -0.199556
H      0.951826      3.435529    -0.290891
49
 -1042.13240598 -1041.76013900  6.54 6.36
C      0.259672      0.011165    -3.152126
C     -0.410807     -1.239029    -3.797155
H      0.507837      0.730961    -3.938575
H     -0.201836     -1.336904    -4.868451
C     -0.163671     -2.566535    -3.141547
C     -1.141445     -3.285038    -2.586833
H      0.850312     -2.959082    -3.169210
H     -0.926762     -4.261871    -2.161821
C     -2.526833     -2.793198    -2.526775
C     -2.839157     -1.559879    -2.926755
H     -3.291072     -3.456175    -2.131135
H     -3.863180     -1.201861    -2.849796
C     -1.800942     -0.625522    -3.463609
C     -1.098083      0.394391    -2.502281
H     -2.201263     -0.086560    -4.327698
H     -1.396616      1.434437    -2.667582
C      1.430115     -0.079569    -2.174437
H      1.474019     -1.061953    -1.691768
H      2.384605      0.070015    -2.690249
C      1.200203      0.994134    -1.106237
C      2.407486      1.387697    -0.299905
H      0.871188      1.901237    -1.639809
H      3.379847      1.353853    -0.787673
C      2.317500      1.826964     0.949871
C      1.026613      1.932053     1.726485
H      3.216884      2.119905     1.487115
H      0.939788      2.961354     2.094116
C      1.064808      1.035071     2.961903
C      0.509352      1.481031     4.160486
C      1.642635     -0.232950     2.928040
C      0.522811      0.680161     5.295464
H      0.054397      2.466651     4.205338
C      1.659420     -1.036245     4.061067
H      2.098234     -0.590581     2.010444
C      1.097871     -0.583721     5.249152
H      0.084365      1.046784     6.218585
H      2.115544     -2.020482     4.015844
H      1.111594     -1.212103     6.134089
C     -1.167762      0.056631    -1.012287
H     -2.103826      0.448943    -0.603816
H     -1.230177     -1.027393    -0.895416
C      0.053901      0.548940    -0.187490
C     -0.213165      1.681375     0.809642
H      0.415690     -0.308395     0.389402
H     -0.394533      2.609632     0.257569
C     -1.436171      1.501293     1.684016
O     -2.092476      2.411248     2.125396
O     -1.721289      0.213782     1.964957
H     -2.475624      0.225330     2.571453
49
 -1042.13019886 -1041.75970300  7.93 6.63
C     -2.068216      2.684361     0.000696
C     -2.561941      3.301628     1.356001
H     -2.394759      3.231976    -0.888925
H     -2.809608      4.355231     1.196085
C     -3.649050      2.639241     2.142224
C     -3.369867      1.750807     3.097357
H     -4.681696      2.889685     1.910661
H     -4.167254      1.269380     3.656320
C     -1.981006      1.372999     3.402240
C     -0.943880      1.993508     2.835298
H     -1.814014      0.563312     4.107627
H      0.071551      1.686870     3.076109
C     -1.118151      3.163185     1.910851
C     -0.615569      3.008440     0.444963
H     -0.726923      4.058814     2.407502
H     -0.350857      4.009325     0.088224
C     -2.346258      1.191338    -0.183057
H     -2.477711      0.704651     0.787302
H     -3.289491      1.059792    -0.724760
C     -1.213363      0.466241    -0.914177
C     -1.537769     -0.988432    -1.146436
H     -1.047747      0.951825    -1.889772
H     -2.571827     -1.314030    -1.059530
C     -0.578048     -1.849000    -1.459314
C      0.830544     -1.346782    -1.664475
H     -0.797199     -2.894119    -1.653497
H      0.815732     -0.793624    -2.613546
C      1.884933     -2.427446    -1.828200
C      2.976177     -2.202002    -2.666109
C      1.814649     -3.639171    -1.142569
C      3.968528     -3.161227    -2.823256
H      3.049358     -1.261388    -3.206138
C      2.802415     -4.603257    -1.298606
H      0.982839     -3.826688    -0.472387
C      3.883870     -4.368133    -2.139458
H      4.809048     -2.965002    -3.482045
H      2.728212     -5.541621    -0.757011
H      4.656537     -5.120920    -2.259687
C      0.502832      2.049391     0.052500
H      0.891697      2.366818    -0.923996
H      1.340603      2.130462     0.756197
C      0.069072      0.585277    -0.072223
C      1.243290     -0.286682    -0.592232
H     -0.209206      0.216457     0.919464
H      1.996128      0.355302    -1.055895
C      1.968890     -0.915034     0.578846
O      3.116690     -0.708120     0.876555
O      1.182923     -1.747201     1.299705
H      1.734890     -2.096436     2.014570
49
 -1042.12894278 -1041.75710600  8.72 8.26
C     -2.066286     -1.346497    -2.198964
C     -3.551644     -1.729066    -1.868732
H     -1.794352     -1.475800    -3.251193
H     -4.139646     -1.694113    -2.790744
C     -3.865662     -2.983596    -1.116098
C     -3.980754     -2.983341     0.212907
H     -3.989014     -3.906898    -1.677326
H     -4.200904     -3.901601     0.749983
C     -3.783083     -1.751803     0.993084
C     -3.615649     -0.566021     0.402950
H     -3.771869     -1.829167     2.077058
H     -3.460046      0.325689     1.006397
C     -3.691694     -0.395155    -1.086736
C     -2.416257      0.120015    -1.817098
H     -4.589616      0.187327    -1.324071
H     -2.748187      0.650247    -2.715710
C     -0.997268     -1.994142    -1.313162
H     -1.429584     -2.314734    -0.361230
H     -0.617745     -2.898224    -1.801867
C      0.153749     -1.033987    -1.008286
C      1.268448     -1.670240    -0.215340
H      0.565626     -0.667000    -1.962366
H      1.269723     -2.746601    -0.063997
C      2.205396     -0.893128     0.312238
C      2.116057      0.596659     0.052383
H      3.002895     -1.282913     0.933798
H      2.204631      0.732210    -1.036220
C      3.251356      1.409611     0.656092
C      4.557193      0.931491     0.528140
C      3.068089      2.643866     1.275572
C      5.638926      1.646875     1.020988
H      4.730498     -0.015253     0.024647
C      4.149139      3.364753     1.773217
H      2.076136      3.068784     1.385710
C      5.439344      2.869774     1.652777
H      6.642987      1.248790     0.908817
H      3.974800      4.321160     2.257179
H      6.282584      3.431715     2.041406
C     -1.366701      0.973475    -1.112988
H     -0.767584      1.484361    -1.879002
H     -1.850928      1.759764    -0.521926
C     -0.413428      0.168972    -0.227610
C      0.695596      1.070477     0.405632
H     -0.993458     -0.266169     0.593676
H      0.553202      2.094849     0.049980
C      0.468540      1.087061     1.900946
O      1.093365      0.487676     2.732141
O     -0.598278      1.863229     2.221294
H     -0.708643      1.806619     3.181650
49
 -1042.12761493 -1041.75583400  9.55 9.06
C     -1.144686     -1.360003    -2.846466
C     -1.200600     -0.547360    -4.188576
H     -1.442766     -2.408296    -2.946092
H     -1.161358     -1.248289    -5.027748
C     -2.277207      0.464457    -4.425257
C     -2.101082      1.748922    -4.110927
H     -3.218678      0.128643    -4.853694
H     -2.892139      2.473970    -4.280247
C     -0.848849      2.217197    -3.496615
C      0.207325      1.412949    -3.354919
H     -0.802982      3.246043    -3.149486
H      1.114818      1.782337    -2.881230
C      0.216613      0.006010    -3.879591
C      0.395028     -1.142914    -2.844321
H      0.926283     -0.049377    -4.713336
H      0.872221     -1.979917    -3.364492
C     -1.877290     -0.730270    -1.657521
H     -2.006935      0.344136    -1.815171
H     -2.884148     -1.155645    -1.583320
C     -1.126290     -0.916564    -0.336351
C     -1.869827     -0.328631     0.837347
H     -0.971643     -1.993453    -0.161394
H     -2.905251     -0.022290     0.710611
C     -1.236252     -0.153297     1.989310
C      0.200939     -0.618710     2.096475
H     -1.713317      0.314035     2.842772
H      0.179070     -1.711086     1.960961
C      0.837930     -0.397826     3.461440
C      0.084099     -0.660442     4.607879
C      2.167443     -0.013382     3.630213
C      0.627451     -0.517863     5.876586
H     -0.944431     -0.993506     4.506138
C      2.715797      0.131820     4.901078
H      2.805418      0.176091     2.774112
C      1.949286     -0.114140     6.030563
H      0.016097     -0.726143     6.749545
H      3.752975      0.437388     5.002084
H      2.377153      0.000005     7.021442
C      1.107397     -0.929299    -1.514684
H      1.395215     -1.911694    -1.116432
H      2.038164     -0.369759    -1.664194
C      0.246764     -0.229757    -0.461878
C      1.011317     -0.093130     0.893241
H      0.024535      0.782619    -0.817544
H      1.942762     -0.660101     0.823385
C      1.442950      1.353592     0.990165
O      2.424948      1.798279     0.448611
O      0.595231      2.132410     1.688082
H      0.950504      3.032241     1.649445
