49
 -1042.14319032 -1041.77198500  0.00 0.00
C     -2.774171     -1.324602     1.063588
C     -2.582776     -1.687517     2.570149
H     -3.778770     -1.608604     0.735212
H     -3.340771     -2.387728     2.938140
C     -1.230875     -2.186099     2.989902
C     -0.440649     -1.505177     3.821367
H     -0.918254     -3.159301     2.617594
H      0.514835     -1.921216     4.129229
C     -0.821979     -0.184376     4.345868
C     -1.936138      0.425631     3.940422
H     -0.163469      0.291377     5.067080
H     -2.189193      1.412555     4.321043
C     -2.856196     -0.200857     2.939287
C     -2.715166      0.183960     1.429100
H     -3.894231     -0.063003     3.256598
H     -3.541374      0.786660     1.038722
C     -1.759390     -1.738864     0.001556
H     -0.761028     -1.863167     0.434029
H     -2.029215     -2.700115    -0.449000
C     -1.718406     -0.637504    -1.070380
C     -1.051992     -1.087726    -2.341761
H     -2.765735     -0.424326    -1.330313
H     -1.506875     -1.939523    -2.844609
C      0.002961     -0.502591    -2.895115
C      0.705466      0.682499    -2.282634
H      0.389296     -0.870806    -3.842587
H      0.304127      1.598541    -2.735077
C      2.204383      0.663985    -2.528713
C      2.883686      1.836553    -2.852638
C      2.933802     -0.517862    -2.398817
C      4.259826      1.829594    -3.047074
H      2.329153      2.765972    -2.944335
C      4.308428     -0.528766    -2.594549
H      2.417130     -1.440145    -2.148480
C      4.976983      0.646387    -2.919600
H      4.772619      2.752826    -3.299369
H      4.860672     -1.458095    -2.492359
H      6.051608      0.638772    -3.072176
C     -1.377490      0.785688     1.021460
H     -1.321951      1.835081     1.328947
H     -0.579773      0.265169     1.562151
C     -1.113395      0.663634    -0.495866
C      0.398971      0.740245    -0.774309
H     -1.577412      1.512396    -1.011307
H      0.903426     -0.096245    -0.279993
C      0.945525      2.031354    -0.203411
O      0.632742      3.132850    -0.580517
O      1.832439      1.837360     0.794526
H      2.118598      2.715124     1.089021
49
 -1042.14137798 -1041.77023700  1.14 1.10
C     -2.865591     -1.013887     1.162535
C     -2.771452     -1.086595     2.719442
H     -3.863977     -1.318359     0.833481
H     -3.581002     -1.673522     3.167120
C     -1.469281     -1.545728     3.307614
C     -0.690846     -0.747453     4.039901
H     -1.185717     -2.583705     3.147452
H      0.225915     -1.132190     4.478448
C     -1.033781      0.663344     4.278847
C     -2.094484      1.225376     3.698449
H     -0.390921      1.244155     4.934209
H     -2.318460      2.276124     3.867852
C     -2.991018      0.452628     2.781708
C     -2.753199      0.533538     1.237362
H     -4.036195      0.688155     3.003951
H     -3.527744      1.080305     0.690039
C     -1.816709     -1.662661     0.263695
H     -0.850234     -1.737595     0.772727
H     -2.107892     -2.682345    -0.010746
C     -1.665010     -0.793114    -0.994966
C     -0.949359     -1.506953    -2.109880
H     -2.684914     -0.598263    -1.358130
H     -1.412961     -2.426384    -2.463365
C      0.160104     -1.078983    -2.698899
C      0.877725      0.182965    -2.286690
H      0.583031     -1.639617    -3.529172
H      0.534777      0.997465    -2.937222
C      2.384554      0.073179    -2.439688
C      3.118366      1.116322    -2.999580
C      3.065624     -1.058671    -1.992966
C      4.501116      1.032134    -3.115549
H      2.601045      2.006116    -3.347585
C      4.446460     -1.147771    -2.108336
H      2.506379     -1.881429    -1.556383
C      5.169768     -0.101218    -2.670282
H      5.056062      1.854790    -3.556194
H      4.960762     -2.037542    -1.757914
H      6.249251     -0.170543    -2.760229
C     -1.368679      0.995215     0.804835
H     -1.277844      2.081200     0.911998
H     -0.623969      0.561368     1.480192
C     -1.032458      0.574107    -0.643164
C      0.494748      0.532667    -0.836567
H     -1.435283      1.319228    -1.338653
H      0.917321     -0.227612    -0.172623
C      1.126636      1.837777    -0.403654
O      1.873595      1.982072     0.527742
O      0.749128      2.878984    -1.185728
H      1.196618      3.662926    -0.835435
49
 -1042.14015779 -1041.76767400  1.90 2.71
C     -2.831760     -0.975112     1.253118
C     -2.311641     -1.469849     2.644033
H     -3.881940     -1.206272     1.046525
H     -3.163260     -1.599201     3.318971
C     -1.412365     -2.662460     2.725444
C     -0.084875     -2.530476     2.725668
H     -1.866099     -3.649770     2.772120
H      0.557742     -3.404952     2.776420
C      0.548104     -1.206315     2.629238
C     -0.168008     -0.079100     2.650821
H      1.630338     -1.162820     2.534070
H      0.332175      0.880621     2.566429
C     -1.653034     -0.079533     2.857729
C     -2.569325      0.476882     1.723202
H     -1.861489      0.379696     3.831458
H     -3.471973      0.852031     2.216700
C     -1.972229     -1.364467     0.058187
H     -0.925943     -1.473978     0.352698
H     -2.282267     -2.343454    -0.324210
C     -2.065816     -0.317234    -1.060937
C     -1.375746     -0.826626    -2.298250
H     -3.130188     -0.172071    -1.297019
H     -1.866783     -1.633984    -2.838240
C     -0.207716     -0.372363    -2.733963
C      0.555309      0.748527    -2.075350
H      0.235433     -0.795068    -3.632757
H      0.365591      1.659766    -2.657947
C      2.055587      0.513399    -2.072033
C      2.935191      1.551197    -2.372654
C      2.581721     -0.732974    -1.732610
C      4.310235      1.350208    -2.336351
H      2.539247      2.528383    -2.635484
C      3.954501     -0.937973    -1.697873
H      1.906491     -1.552257    -1.501640
C      4.824422      0.104420    -1.999109
H      4.981025      2.170174    -2.574384
H      4.347851     -1.915166    -1.434380
H      5.897675     -0.055307    -1.971563
C     -2.136959      1.532409     0.698597
H     -3.039233      2.085612     0.415995
H     -1.491127      2.271462     1.185730
C     -1.498723      1.042765    -0.622898
C      0.041179      1.019471    -0.639946
H     -1.777882      1.773669    -1.391836
H      0.431104      0.259105     0.038578
C      0.580295      2.371147    -0.218589
O      0.329766      3.411424    -0.772797
O      1.402651      2.315124     0.852065
H      1.702748      3.221290     1.019025
49
 -1042.13908115 -1041.76714400  2.58 3.04
C     -2.465041      1.206260    -0.022885
C     -2.502834      2.348036     1.045714
H     -3.346305      1.172390    -0.671670
H     -3.255925      3.089659     0.763144
C     -2.670233      1.989734     2.489802
C     -1.623834      1.863442     3.306228
H     -3.678146      1.816817     2.860566
H     -1.765166      1.593161     4.348887
C     -0.249848      2.062310     2.820061
C      0.004822      2.466813     1.574153
H      0.569316      1.864800     3.506333
H      1.034646      2.583522     1.243745
C     -1.084268      2.797058     0.593520
C     -1.209982      1.866029    -0.656291
H     -1.010865      3.858357     0.332540
H     -1.470100      2.448364    -1.545787
C     -2.132906     -0.188370     0.484127
H     -1.337394     -0.125290     1.233272
H     -2.996451     -0.635317     0.988975
C     -1.671731     -1.106885    -0.668830
C     -1.137824     -2.387203    -0.080802
H     -2.554377     -1.373467    -1.260614
H     -1.841370     -2.949569     0.532505
C      0.100296     -2.845140    -0.220632
C      1.132696     -2.143880    -1.064288
H      0.402628     -3.758993     0.284868
H      1.732849     -2.904376    -1.575423
C      2.115112     -1.295063    -0.264134
C      3.245444     -0.781770    -0.900369
C      1.915220     -0.987187     1.078574
C      4.138576      0.038053    -0.223726
H      3.426703     -1.023821    -1.944627
C      2.804046     -0.161936     1.759155
H      1.045590     -1.381076     1.592874
C      3.916124      0.358648     1.110612
H      5.008824      0.429809    -0.741328
H      2.620164      0.077085     2.802115
H      4.607763      1.003996     1.642515
C     -0.092065      0.882213    -0.974515
H      0.647955      1.335934    -1.643260
H      0.435200      0.620320    -0.058374
C     -0.678413     -0.380192    -1.620048
C      0.406431     -1.321441    -2.161514
H     -1.257235     -0.049815    -2.489543
H      1.154744     -0.731539    -2.703008
C     -0.183179     -2.274063    -3.186642
O     -1.349005     -2.405247    -3.453970
O      0.776857     -2.989999    -3.817336
H      0.322490     -3.571170    -4.444669
49
 -1042.13936825 -1041.76679600  2.40 3.26
C     -2.910659     -0.273928     1.395360
C     -2.503944      0.123940     2.854089
H     -3.937303     -0.639396     1.288515
H     -3.408624      0.345547     3.428671
C     -1.601571     -0.764905     3.649374
C     -0.280918     -0.576167     3.663457
H     -2.045571     -1.583062     4.211805
H      0.365072     -1.233518     4.238754
C      0.342673      0.503008     2.883057
C     -0.383720      1.405481     2.218134
H      1.428550      0.549461     2.852892
H      0.113377      2.180653     1.642375
C     -1.881739      1.431682     2.292268
C     -2.706400      1.205721     0.986802
H     -2.178644      2.343346     2.824512
H     -3.652116      1.739680     1.126932
C     -1.949011     -1.216901     0.683517
H     -0.933508     -1.094108     1.066204
H     -2.224222     -2.257732     0.887876
C     -1.941635     -0.973077    -0.832827
C     -1.128608     -2.036973    -1.522453
H     -2.978905     -1.047686    -1.191161
H     -1.559472     -3.035478    -1.565112
C      0.074465     -1.828622    -2.042062
C      0.767951     -0.488383    -2.049048
H      0.605771     -2.648143    -2.520728
H      0.647101     -0.069213    -3.056175
C      2.258240     -0.601191    -1.778729
C      3.170494      0.140759    -2.525279
C      2.738906     -1.419428    -0.756954
C      4.533199      0.069290    -2.259803
H      2.811176      0.783476    -3.324660
C      4.099399     -1.495935    -0.490128
H      2.038872     -2.007972    -0.170495
C      5.001991     -0.750172    -1.240782
H      5.229378      0.654360    -2.853007
H      4.457511     -2.140078     0.307251
H      6.065442     -0.809585    -1.031741
C     -2.205463      1.531725    -0.423935
H     -3.091573      1.755555    -1.028571
H     -1.629525      2.463425    -0.400365
C     -1.429546      0.433041    -1.186363
C      0.104167      0.489013    -1.049751
H     -1.635677      0.588025    -2.252506
H      0.410097      0.226847    -0.037011
C      0.631564      1.887787    -1.288990
O      1.244951      2.559112    -0.500205
O      0.341850      2.344914    -2.530939
H      0.716158      3.235814    -2.592069
49
 -1042.13829161 -1041.76675900  3.07 3.28
C      0.200822     -1.314002     2.430964
C      1.477516     -2.213733     2.529899
H     -0.305259     -1.145385     3.387107
H      1.817712     -2.249683     3.569128
C      1.444746     -3.599296     1.963842
C      1.884215     -3.861990     0.732627
H      1.035954     -4.395995     2.581350
H      1.843991     -4.872097     0.334905
C      2.411712     -2.795503    -0.132447
C      2.566622     -1.544986     0.307387
H      2.672059     -3.049655    -1.156396
H      2.941541     -0.775887    -0.364896
C      2.271610     -1.145895     1.724769
C      1.096000     -0.141981     1.943318
H      3.205003     -0.825068     2.200194
H      1.330529      0.542908     2.764414
C     -0.804254     -1.697765     1.354648
H     -0.262411     -2.011166     0.457239
H     -1.400586     -2.561376     1.668091
C     -1.737783     -0.520457     0.979450
C     -2.347196     -0.796319    -0.373329
H     -2.556397     -0.486859     1.711809
H     -2.802934     -1.778478    -0.494856
C     -2.342859      0.040138    -1.402773
C     -1.781697      1.436533    -1.343799
H     -2.782284     -0.269855    -2.348060
H     -2.522600      2.097554    -1.807886
C     -0.490316      1.618305    -2.136078
C      0.236986      0.544540    -2.642066
C     -0.014182      2.908713    -2.374694
C      1.417290      0.751667    -3.348358
H     -0.120412     -0.466513    -2.477079
C      1.161698      3.121139    -3.081176
H     -0.575840      3.762932    -2.004978
C      1.886736      2.039558    -3.568639
H      1.970797     -0.101527    -3.728781
H      1.511653      4.134441    -3.253212
H      2.807689      2.199724    -4.120001
C      0.506242      0.634656     0.772393
H      1.007802      1.600062     0.645406
H      0.644684      0.083859    -0.158416
C     -0.990232      0.833702     1.039192
C     -1.643152      1.887830     0.122080
H     -1.072703      1.214661     2.062505
H     -1.028680      2.794273     0.172045
C     -3.001900      2.296419     0.666627
O     -4.056414      2.216447     0.094236
O     -2.906942      2.809444     1.915987
H     -3.804575      3.051964     2.186308
49
 -1042.13827367 -1041.76674900  3.09 3.29
C     -2.250900      1.488572     0.627658
C     -2.282124      1.937256     2.126619
H     -2.979418      2.000118    -0.009787
H     -2.796886      2.899268     2.207765
C     -2.810288      0.995821     3.163920
C     -1.999555      0.205358     3.868132
H     -3.885646      0.959268     3.323350
H     -2.401524     -0.478484     4.610359
C     -0.545161      0.214341     3.647633
C      0.034302      1.078150     2.811387
H      0.057807     -0.512954     4.184586
H      1.110911      1.044799     2.657000
C     -0.740375      2.137329     2.081075
C     -0.795723      2.022175     0.525018
H     -0.402964      3.120235     2.427818
H     -0.772162      3.017763     0.070559
C     -2.284625     -0.012507     0.379548
H     -1.666813     -0.511590     1.132132
H     -3.298705     -0.406172     0.507450
C     -1.747185     -0.385682    -1.024082
C     -1.356350     -1.843324    -1.022412
H     -2.565450     -0.262123    -1.747112
H     -2.106967     -2.533331    -0.638268
C     -0.186292     -2.325345    -1.419967
C      0.911785     -1.478002    -2.006912
H      0.007102     -3.393064    -1.346961
H      1.271571     -1.997972    -2.902144
C      2.122095     -1.313294    -1.092355
C      3.300697     -0.776367    -1.613313
C      2.104897     -1.684726     0.249178
C      4.422821     -0.598444    -0.815746
H      3.342782     -0.496605    -2.662978
C      3.225667     -1.506191     1.053459
H      1.202466     -2.113549     0.672158
C      4.388122     -0.959894     0.526364
H      5.327600     -0.178183    -1.244229
H      3.187181     -1.798216     2.098577
H      5.261866     -0.821283     1.154985
C      0.149124      1.088517    -0.221684
H      1.065974      1.608759    -0.519064
H      0.451771      0.260203     0.419596
C     -0.589394      0.548545    -1.451826
C      0.340878     -0.127927    -2.479227
H     -1.030030      1.417047    -1.952456
H      1.162699      0.566974    -2.687630
C     -0.376228     -0.307421    -3.807104
O     -0.557435     -1.344156    -4.388788
O     -0.793661      0.876292    -4.314762
H     -1.228255      0.680013    -5.157514
49
 -1042.13673048 -1041.76575700  4.05 3.91
C     -1.276751      2.518763     1.635133
C     -2.655122      2.874058     0.992977
H     -1.062511      3.200240     2.464203
H     -3.015791      3.866690     1.284201
C     -2.772072      2.743971    -0.497572
C     -3.569389      1.847031    -1.079869
H     -2.201994      3.441549    -1.107373
H     -3.652250      1.812378    -2.162795
C     -4.354809      0.882270    -0.294119
C     -4.234110      0.808655     1.031652
H     -5.031060      0.217784    -0.824459
H     -4.804741      0.072366     1.593040
C     -3.301941      1.703289     1.787981
C     -1.872705      1.180915     2.152494
H     -3.798225      2.072431     2.690508
H     -1.722286      0.990167     3.219880
C     -0.019780      2.341927     0.788052
H     -0.270065      2.029753    -0.231435
H      0.533517      3.283358     0.701437
C      0.855773      1.266396     1.451716
C      2.265299      1.268589     0.924602
H      0.924839      1.540651     2.514536
H      2.814222      2.202486     1.033422
C      2.878284      0.222794     0.384895
C      2.204161     -1.113201     0.196863
H      3.916664      0.303851     0.072306
H      2.433707     -1.746740     1.063632
C      2.678685     -1.838756    -1.049662
C      3.025493     -3.186353    -1.002194
C      2.728368     -1.177236    -2.277486
C      3.423209     -3.858769    -2.151874
H      2.976113     -3.716839    -0.055536
C      3.123612     -1.846135    -3.428802
H      2.467797     -0.123191    -2.328567
C      3.474510     -3.190442    -3.368814
H      3.692315     -4.909031    -2.095565
H      3.160649     -1.316221    -4.375777
H      3.785383     -3.713901    -4.267316
C     -1.363310      0.008139     1.326694
H     -1.824644     -0.926035     1.658347
H     -1.674482      0.155089     0.285645
C      0.174404     -0.121504     1.377849
C      0.674348     -0.915667     0.163351
H      0.452521     -0.691187     2.270662
H      0.426246     -0.354036    -0.747602
C      0.017486     -2.290231     0.108954
O     -0.124288     -2.991433     1.072056
O     -0.388593     -2.723994    -1.105739
H     -0.116683     -2.104686    -1.794537
49
 -1042.13708936 -1041.76352600  3.83 5.31
C     -2.305888      1.957601     0.507574
C     -2.099019      1.607122     2.011610
H     -2.883099      2.887593     0.480868
H     -2.860747      2.056941     2.659530
C     -1.955830      0.165372     2.399839
C     -0.851407     -0.308700     2.979075
H     -2.814519     -0.485569     2.253307
H     -0.808884     -1.344465     3.306405
C      0.337952      0.532628     3.185156
C      0.395897      1.776777     2.707697
H      1.185571      0.105014     3.712737
H      1.295989      2.372539     2.839834
C     -0.752478      2.379883     1.963388
C     -0.797609      2.304313     0.398492
H     -0.895756      3.418490     2.277110
H     -0.584403      3.248742    -0.112506
C     -2.923452      0.998530    -0.511390
H     -3.742099      0.433579    -0.049624
H     -3.389174      1.613197    -1.290336
C     -1.964055      0.025123    -1.226183
C     -1.771319     -1.300865    -0.531936
H     -2.441344     -0.210863    -2.188503
H     -2.610778     -1.692051     0.038886
C     -0.668861     -2.031741    -0.641991
C      0.547025     -1.634295    -1.441243
H     -0.619889     -3.001640    -0.151329
H      0.703794     -2.431752    -2.177625
C      1.830676     -1.576836    -0.616580
C      3.056477     -1.470811    -1.277886
C      1.838034     -1.648248     0.772920
C      4.250978     -1.419639    -0.573629
H      3.076855     -1.433788    -2.364211
C      3.033220     -1.600863     1.483280
H      0.900283     -1.739552     1.307416
C      4.243971     -1.481551     0.815673
H      5.190685     -1.336104    -1.111171
H      3.014644     -1.658376     2.567572
H      5.175240     -1.443118     1.371629
C      0.026661      1.178803    -0.214466
H      1.052788      1.518180    -0.393195
H      0.094923      0.346876     0.485412
C     -0.603951      0.676099    -1.514747
C      0.315083     -0.331349    -2.240772
H     -0.756402      1.533161    -2.182489
H      1.274746      0.163260    -2.420829
C     -0.259110     -0.638119    -3.609950
O     -0.750433     -1.676758    -3.967343
O     -0.168632      0.430581    -4.435516
H     -0.562354      0.166646    -5.279954
49
 -1042.13638954 -1041.76293000  4.27 5.68
C     -1.199261      2.847527     0.594183
C      0.177093      3.140787     1.263985
H     -1.673033      3.818948     0.419111
H      0.201053      4.112005     1.772405
C      0.756420      2.118696     2.196192
C      1.921294      1.514641     1.954873
H      0.225595      1.923183     3.124925
H      2.341280      0.827951     2.685514
C      2.667156      1.740002     0.706665
C      2.158588      2.482033    -0.278228
H      3.635283      1.260932     0.592199
H      2.708960      2.609576    -1.207436
C      0.819674      3.136064    -0.150266
C     -0.459144      2.413493    -0.697920
H      0.860947      4.151651    -0.555825
H     -0.867191      2.840005    -1.619947
C     -2.255637      1.915571     1.188759
H     -2.294771      2.035460     2.278250
H     -3.229131      2.256612     0.817875
C     -2.148504      0.417486     0.839257
C     -1.308443     -0.392922     1.792524
H     -3.166502      0.018323     0.918420
H     -1.279125     -0.071823     2.831803
C     -0.667518     -1.502359     1.444993
C     -0.665928     -2.094615     0.058238
H     -0.116158     -2.061684     2.198212
H     -1.088772     -3.101789     0.151300
C      0.731366     -2.309417    -0.516056
C      0.875911     -3.142821    -1.627426
C      1.869793     -1.721842     0.024905
C      2.122547     -3.369904    -2.192866
H     -0.005036     -3.619980    -2.049894
C      3.121870     -1.949645    -0.537645
H      1.778976     -1.079787     0.892542
C      3.253777     -2.769805    -1.649580
H      2.212599     -4.020739    -3.057348
H      3.998907     -1.481346    -0.100914
H      4.231114     -2.945208    -2.087761
C     -0.333320      0.900609    -0.830821
H      0.071507      0.646485    -1.816721
H      0.381157      0.524588    -0.098965
C     -1.676819      0.200003    -0.605533
C     -1.574316     -1.296738    -0.928951
H     -2.424575      0.634059    -1.280992
H     -1.139142     -1.404095    -1.929292
C     -2.941693     -1.941491    -1.049360
O     -4.008157     -1.428889    -0.831465
O     -2.848037     -3.220349    -1.490335
H     -3.752661     -3.559439    -1.555579
49
 -1042.13443365 -1041.76213100  5.49 6.18
C     -2.796734      1.588252     0.245149
C     -3.065878      1.225164     1.745358
H     -3.638068      2.073627    -0.259687
H     -3.904116      1.821436     2.118228
C     -3.249866     -0.205961     2.142485
C     -2.233931     -0.940912     2.597251
H     -4.239627     -0.644874     2.039157
H     -2.384089     -1.979845     2.876565
C     -0.879463     -0.378460     2.719084
C     -0.627029      0.908482     2.466370
H     -0.081328     -1.045806     3.037859
H      0.379565      1.304334     2.574334
C     -1.711603      1.884462     2.124729
C     -1.692940      2.568043     0.722718
H     -1.776419      2.610368     2.943785
H     -2.138419      3.559105     0.855179
C     -2.263715      0.454576    -0.622847
H     -1.726965     -0.276684    -0.013738
H     -3.097546     -0.090783    -1.079171
C     -1.323080      0.975900    -1.719931
C     -0.960249     -0.139592    -2.664738
H     -1.861033      1.747865    -2.288908
H     -1.733226     -0.476383    -3.352812
C      0.224905     -0.736789    -2.679348
C      1.368972     -0.352031    -1.774034
H      0.418860     -1.537915    -3.388873
H      2.066815      0.260404    -2.360408
C      2.136174     -1.559202    -1.261131
C      1.459342     -2.677384    -0.772203
C      3.529007     -1.558210    -1.237758
C      2.158831     -3.771363    -0.279627
H      0.372954     -2.694126    -0.790348
C      4.232392     -2.650086    -0.742887
H      4.068944     -0.690171    -1.605530
C      3.549336     -3.760968    -0.263584
H      1.617327     -4.635504     0.093182
H      5.317905     -2.632242    -0.733613
H      4.097001     -4.615374     0.121295
C     -0.426328      2.744173    -0.121635
H     -0.569118      3.648332    -0.723254
H      0.426981      2.966968     0.526387
C     -0.064847      1.623298    -1.121332
C      0.877773      0.528519    -0.597974
H      0.482199      2.106830    -1.939247
H      0.351486     -0.108624     0.117633
C      2.111410      1.130207     0.061280
O      2.743926      2.031490    -0.414535
O      2.511035      0.572658     1.228684
H      1.942476     -0.175204     1.452444
49
 -1042.13292635 -1041.76178700  6.44 6.40
C      2.266139      2.173804     0.750161
C      1.716863      3.085279     1.892782
H      3.274868      2.492060     0.469461
H      2.287966      4.013084     2.007561
C      0.255801      3.426568     1.855197
C     -0.603704      3.007821     2.785411
H     -0.087321      4.070827     1.048582
H     -1.646508      3.309942     2.740071
C     -0.183533      2.133876     3.892134
C      1.058054      1.652591     3.960787
H     -0.917036      1.878430     4.651610
H      1.344061      0.989458     4.774016
C      2.086130      1.978358     2.922176
C      2.317206      0.978528     1.741221
H      3.042087      2.199580     3.406269
H      3.274716      0.449127     1.779207
C      1.454993      1.892586    -0.511767
H      0.380618      1.982178    -0.321157
H      1.695014      2.609744    -1.304010
C      1.774855      0.461702    -0.973196
C      1.336359      0.193484    -2.387074
H      2.871579      0.376516    -0.969215
H      1.785693      0.823937    -3.152389
C      0.490675     -0.760077    -2.756332
C     -0.187953     -1.688939    -1.779238
H      0.268920     -0.907383    -3.810632
H      0.393180     -2.624219    -1.758139
C     -1.603954     -2.046064    -2.198988
C     -2.083370     -3.344696    -2.046965
C     -2.461052     -1.070164    -2.705028
C     -3.389552     -3.665799    -2.397370
H     -1.432835     -4.116192    -1.643681
C     -3.765745     -1.387715    -3.058889
H     -2.100753     -0.053078    -2.829660
C     -4.234786     -2.687836    -2.905897
H     -3.745896     -4.683671    -2.272588
H     -4.419762     -0.616906    -3.454952
H     -5.254802     -2.935847    -3.181819
C      1.179417      0.004467     1.470127
H      1.182658     -0.805794     2.206759
H      0.226269      0.526260     1.602736
C      1.226833     -0.572621     0.038187
C     -0.177257     -1.051047    -0.375744
H      1.913799     -1.431393     0.018675
H     -0.846753     -0.186778    -0.396324
C     -0.779389     -1.987981     0.663890
O     -1.785342     -1.766447     1.272632
O     -0.098928     -3.143977     0.889083
H      0.701484     -3.175582     0.352317
49
 -1042.13131139 -1041.75893300  7.45 8.19
C     -2.827486     -1.484699    -0.305572
C     -3.699688     -0.457382     0.492731
H     -3.346154     -2.409458    -0.578467
H     -4.757863     -0.667841     0.309839
C     -3.466294     -0.259492     1.957130
C     -2.651499      0.696732     2.406475
H     -3.968345     -0.925629     2.655030
H     -2.483636      0.823413     3.472375
C     -1.939091      1.588465     1.479127
C     -2.157384      1.556926     0.162037
H     -1.213386      2.285671     1.890529
H     -1.605231      2.227251    -0.489796
C     -3.194038      0.665740    -0.453808
C     -2.730722     -0.443248    -1.448644
H     -3.984772      1.300471    -0.871123
H     -3.563141     -0.605568    -2.140953
C     -1.475026     -1.815951     0.312910
H     -1.112823     -0.983750     0.920142
H     -1.573775     -2.666682     0.996338
C     -0.430296     -2.139341    -0.764525
C      0.839963     -2.638832    -0.128788
H     -0.836454     -2.941919    -1.397542
H      0.818820     -3.643329     0.289200
C      1.951365     -1.920405    -0.031598
C      2.101583     -0.518235    -0.570771
H      2.830408     -2.347818     0.445435
H      2.700607     -0.596496    -1.491240
C      2.867349      0.389415     0.377855
C      3.806124      1.294264    -0.111208
C      2.616714      0.358024     1.748731
C      4.483302      2.150200     0.749339
H      4.006090      1.339337    -1.178689
C      3.293813      1.209442     2.612020
H      1.890185     -0.346251     2.143898
C      4.229849      2.109375     2.114554
H      5.211638      2.849580     0.350561
H      3.089920      1.170791     3.677716
H      4.758651      2.775228     2.789175
C     -1.451541     -0.364779    -2.289696
H     -1.637203     -0.946422    -3.200016
H     -1.298939      0.666009    -2.628588
C     -0.152095     -0.927950    -1.669803
C      0.725071      0.097054    -0.925195
H      0.452590     -1.316308    -2.504774
H      0.236403      0.407035    -0.002587
C      0.933032      1.381900    -1.718032
O      0.682306      2.480442    -1.311743
O      1.459081      1.239155    -2.962489
H      1.572018      0.305865    -3.177503
49
 -1042.13061157 -1041.75884400  7.89 8.25
C     -1.059058      2.513307    -0.390807
C     -1.611938      3.051684     0.969768
H     -1.060589      3.253299    -1.197680
H     -1.622473      4.145594     0.954121
C     -2.928211      2.545681     1.472983
C     -3.005300      1.541582     2.346630
H     -3.834568      3.011766     1.092826
H     -3.970365      1.182252     2.692586
C     -1.794498      0.875789     2.850938
C     -0.571099      1.302960     2.532212
H     -1.917718      0.010095     3.496196
H      0.301263      0.772896     2.908237
C     -0.336073      2.518638     1.681565
C      0.320888      2.281427     0.282693
H      0.190491      3.269226     2.280866
H      1.022881      3.086718     0.044854
C     -1.635526      1.196320    -0.886326
H     -1.752502      0.507534    -0.043705
H     -2.636985      1.342706    -1.305813
C     -0.717502      0.550614    -1.947158
C     -1.213574     -0.841885    -2.232326
H     -0.823825      1.120229    -2.876516
H     -2.237595     -0.908291    -2.598554
C     -0.527560     -1.961365    -2.041443
C      0.898032     -1.962429    -1.553711
H     -0.990639     -2.925725    -2.233742
H      1.421852     -2.779281    -2.069185
C      1.041719     -2.249954    -0.061672
C      2.308376     -2.488811     0.471383
C     -0.049776     -2.255974     0.802015
C      2.485831     -2.701478     1.831846
H      3.175304     -2.503470    -0.184909
C      0.123217     -2.463032     2.166325
H     -1.043795     -2.078246     0.407253
C      1.391206     -2.681182     2.688452
H      3.482471     -2.879760     2.223665
H     -0.741323     -2.448616     2.822745
H      1.524844     -2.840671     3.753526
C      0.940867      0.927393    -0.034999
H      2.001714      0.911654     0.239463
H      0.453911      0.154552     0.558199
C      0.779405      0.620572    -1.530097
C      1.570369     -0.623143    -1.961779
H      1.220367      1.462298    -2.074849
H      2.564419     -0.573601    -1.498049
C      1.796145     -0.612077    -3.472939
O      1.237033      0.105940    -4.250524
O      2.718697     -1.498046    -3.929029
H      3.111190     -1.985689    -3.195533
