49
 -1042.14302883 -1041.76998200  0.00 0.00
C      0.289448     -2.770832     1.208456
C      0.339613     -3.681325    -0.069076
H      0.342332     -3.324576     2.150856
H      0.775053     -4.648464     0.198989
C     -0.890168     -3.892315    -0.895343
C     -1.170521     -3.105732    -1.935613
H     -1.566432     -4.698201    -0.619520
H     -2.072724     -3.261100    -2.520446
C     -0.285112     -1.990156    -2.305156
C      0.895554     -1.806499    -1.710153
H     -0.615860     -1.303791    -3.080128
H      1.528819     -0.972952    -2.006031
C      1.424691     -2.743435    -0.663925
C      1.653914     -2.164940     0.765310
H      2.305929     -3.255190    -1.068078
H      2.462628     -2.742179     1.225316
C     -0.870645     -1.770092     1.270325
H     -1.275928     -1.586441     0.271537
H     -1.687661     -2.195626     1.863779
C     -0.428522     -0.422896     1.855329
C     -1.590187      0.518351     2.024284
H      0.009752     -0.596431     2.845985
H     -2.463469      0.126548     2.544271
C     -1.611837      1.771729     1.583048
C     -0.454218      2.428248     0.869863
H     -2.503838      2.378452     1.721248
H     -0.347672      3.447006     1.256913
C     -0.666700      2.555620    -0.634269
C     -0.003334      3.568518    -1.326508
C     -1.472339      1.675528    -1.354645
C     -0.136743      3.702201    -2.702593
H      0.625551      4.264217    -0.776157
C     -1.609594      1.807401    -2.731881
H     -1.999774      0.883612    -0.833840
C     -0.941867      2.818835    -3.411480
H      0.387521      4.499308    -3.220819
H     -2.247185      1.117037    -3.276464
H     -1.051232      2.919240    -4.486609
C      1.920591     -0.681007     1.007871
H      2.358495     -0.567570     2.005066
H      2.662579     -0.311127     0.288777
C      0.648640      0.163829     0.933848
C      0.865051      1.660084     1.161367
H      0.260503      0.090504    -0.087700
H      1.627425      2.030176     0.466130
C      1.368859      2.008851     2.547325
O      1.472301      1.272954     3.494054
O      1.720044      3.314727     2.624188
H      2.018268      3.469901     3.532302
49
 -1042.13951180 -1041.76692500  2.21 1.92
C      0.392312     -2.810865     0.881688
C      0.378117     -3.574228    -0.489606
H      0.507455     -3.462116     1.753720
H      0.847222     -4.553636    -0.356821
C     -0.896395     -3.723796    -1.259642
C     -1.253942     -2.835028    -2.188108
H     -1.539230     -4.572094    -1.036012
H     -2.186909     -2.947894    -2.733051
C     -0.414139     -1.663080    -2.481572
C      0.796192     -1.514619    -1.938436
H     -0.803339     -0.905371    -3.155936
H      1.393642     -0.636801    -2.174753
C      1.407124     -2.550138    -1.040196
C      1.718289     -2.132726     0.428282
H      2.268679     -2.992022    -1.554423
H      2.559816     -2.745473     0.767944
C     -0.775263     -1.846179     1.114966
H     -1.227477     -1.552733     0.163860
H     -1.559459     -2.352834     1.688581
C     -0.327802     -0.565904     1.833315
C     -1.501701      0.331901     2.131729
H      0.141652     -0.847752     2.785380
H     -2.345703     -0.126656     2.645151
C     -1.572300      1.615852     1.793128
C     -0.452404      2.362918     1.107996
H     -2.476203      2.180640     2.009643
H     -0.364022      3.347157     1.577164
C     -0.699790      2.596120    -0.377355
C     -0.047292      3.651547    -1.014755
C     -1.540818      1.783078    -1.135519
C     -0.223209      3.889608    -2.371664
H      0.605948      4.300918    -0.437139
C     -1.722505      2.020643    -2.493435
H     -2.062386      0.960196    -0.658746
C     -1.063332      3.072017    -3.117854
H      0.294398      4.718044    -2.845568
H     -2.388691      1.381527    -3.065692
H     -1.206717      3.254786    -4.178027
C      1.987967     -0.682930     0.827862
H      2.512133     -0.685129     1.786015
H      2.663205     -0.213822     0.100982
C      0.705987      0.144131     0.949571
C      0.884433      1.615479     1.345906
H      0.264524      0.190138    -0.051998
H      1.652063      2.068072     0.705642
C      1.349642      1.917972     2.763920
O      1.281179      3.007833     3.273418
O      1.889539      0.871958     3.425627
H      2.149507      1.211293     4.294814
49
 -1042.13448748 -1041.76296800  5.36 4.40
C     -2.297755     -0.397930    -1.854368
C     -2.981190     -1.795289    -1.744318
H     -2.934646      0.271961    -2.440689
H     -3.754463     -1.956864    -2.503745
C     -2.084497     -2.998654    -1.716919
C     -1.997782     -3.804808    -0.657414
H     -1.523585     -3.226985    -2.620510
H     -1.367809     -4.689475    -0.695243
C     -2.737228     -3.533897     0.585453
C     -3.444405     -2.413572     0.737862
H     -2.680435     -4.264849     1.387090
H     -3.963011     -2.216626     1.673341
C     -3.527758     -1.385422    -0.346607
C     -2.542382     -0.167338    -0.335969
H     -4.555315     -1.017643    -0.426596
H     -3.020174      0.785611    -0.094632
C     -0.847111     -0.222382    -2.302935
H     -0.259844     -1.128208    -2.115713
H     -0.790733     -0.016920    -3.377319
C     -0.263829      0.933680    -1.484711
C      1.016919      1.533397    -2.001892
H     -1.019412      1.735149    -1.498890
H      1.165985      1.569368    -3.079414
C      1.931399      2.058734    -1.194479
C      1.822182      2.099922     0.313025
H      2.834395      2.497414    -1.613805
H      1.962763      3.142966     0.617324
C      2.917340      1.288998     0.996783
C      3.515223      0.184359     0.393435
C      3.325214      1.643142     2.283781
C      4.492423     -0.547110     1.059623
H      3.220986     -0.101102    -0.611133
C      4.299343      0.914673     2.952888
H      2.873225      2.505699     2.767269
C      4.887159     -0.186981     2.341479
H      4.947637     -1.403492     0.571398
H      4.602287      1.209743     3.952939
H      5.649799     -0.759375     2.859848
C     -1.271830     -0.349950     0.492125
H     -1.471656     -0.110165     1.540021
H     -0.992483     -1.406750     0.467935
C     -0.063949      0.462444    -0.038708
C      0.430422      1.646815     0.817089
H      0.787135     -0.228876    -0.057985
H      0.513668      1.317743     1.858251
C     -0.545790      2.805042     0.816044
O     -0.407512      3.856025     0.246526
O     -1.641406      2.541824     1.566540
H     -2.207517      3.325962     1.515930
49
 -1042.13324934 -1041.76203500  6.14 4.99
C     -0.907028      3.084756    -0.930486
C      0.162260      4.179512    -1.276515
H     -1.941792      3.389826    -1.114825
H     -0.272772      4.887513    -1.988175
C      0.868772      4.924617    -0.188210
C      2.035670      4.498476     0.298090
H      0.403660      5.823115     0.210683
H      2.535962      5.043062     1.093816
C      2.664867      3.266570    -0.203111
C      2.167649      2.598876    -1.246759
H      3.555133      2.903875     0.303776
H      2.651302      1.687139    -1.590306
C      0.985005      3.095869    -2.025367
C     -0.294014      2.207169    -2.052878
H      1.326848      3.386753    -3.025587
H     -0.811633      2.420435    -2.994055
C     -0.788259      2.469579     0.463278
H      0.227667      2.593025     0.848884
H     -1.447195      3.004025     1.156487
C     -1.108294      0.971846     0.489045
C     -1.038141      0.431282     1.894690
H     -2.123548      0.808621     0.094115
H     -1.067896      1.133296     2.724705
C     -0.948475     -0.873576     2.112817
C     -0.994491     -1.833058     0.950165
H     -0.913599     -1.278468     3.119996
H     -2.034063     -1.870570     0.604532
C     -0.586381     -3.248109     1.310727
C      0.562373     -3.487899     2.065512
C     -1.330992     -4.337848     0.864106
C      0.953241     -4.783740     2.374410
H      1.154584     -2.647846     2.418849
C     -0.941571     -5.636837     1.169600
H     -2.219002     -4.164637     0.263370
C      0.200760     -5.864403     1.926967
H      1.848544     -4.951668     2.965604
H     -1.534188     -6.474198     0.813546
H      0.504900     -6.878273     2.167188
C     -0.261458      0.695158    -1.868326
H     -1.212216      0.304107    -2.249276
H      0.529111      0.262901    -2.492776
C     -0.103764      0.231553    -0.412773
C     -0.141671     -1.326691    -0.245975
H      0.885621      0.542287    -0.062100
H      0.887849     -1.659851    -0.094432
C     -0.637044     -2.021826    -1.498196
O     -1.792309     -2.196171    -1.794669
O      0.373331     -2.444897    -2.288729
H     -0.033308     -2.864678    -3.061432
49
 -1042.13319551 -1041.76175500  6.17 5.16
C     -2.675386      0.812551     1.022211
C     -3.448830     -0.315064     1.771552
H     -3.179227      1.769523     1.191429
H     -4.477326     -0.036030     2.026924
C     -3.470762     -1.673768     1.134022
C     -2.902773     -2.740606     1.699104
H     -4.011178     -1.779693     0.195950
H     -2.978681     -3.714910     1.223774
C     -2.161095     -2.644029     2.966106
C     -1.937310     -1.464342     3.546381
H     -1.783012     -3.559859     3.411625
H     -1.362579     -1.408195     4.467992
C     -2.436069     -0.187836     2.945228
C     -1.493135      0.655980     2.020819
H     -2.837587      0.456843     3.732980
H     -1.151611      1.591165     2.470789
C     -2.291535      0.708958    -0.453767
H     -2.229603     -0.335846    -0.777561
H     -3.035856      1.201069    -1.089031
C     -0.913843      1.361177    -0.602830
C     -0.495665      1.715514    -2.005877
H     -0.956097      2.304229    -0.033184
H     -1.267334      2.040079    -2.701615
C      0.773455      1.692535    -2.399027
C      1.933740      1.287023    -1.517357
H      1.028369      1.970417    -3.419664
H      2.687379      2.078230    -1.582680
C      2.613249      0.010357    -2.002833
C      1.939412     -0.962319    -2.738258
C      3.954395     -0.208290    -1.684657
C      2.589261     -2.123610    -3.142402
H      0.899382     -0.807247    -3.005353
C      4.606139     -1.366908    -2.085015
H      4.496741      0.543300    -1.116200
C      3.923037     -2.331768    -2.816582
H      2.047536     -2.869198    -3.716476
H      5.650508     -1.515127    -1.827684
H      4.427947     -3.238974    -3.132825
C     -0.307406     -0.096898     1.418110
H      0.529178     -0.086281     2.121775
H     -0.588010     -1.145105     1.283934
C      0.136952      0.444931     0.035729
C      1.513351      1.134938    -0.035313
H      0.229374     -0.423257    -0.627481
H      2.246845      0.506558     0.480140
C      1.498072      2.430014     0.754597
O      1.332382      2.488602     1.947458
O      1.686135      3.542739     0.014101
H      1.649071      4.288425     0.630943
49
 -1042.13070129 -1041.75977600  7.74 6.40
C      2.279371      0.325794     2.405553
C      3.691394      0.959705     2.149522
H      2.072278      0.095152     3.455216
H      4.053410      1.406610     3.080225
C      4.782652      0.155937     1.515592
C      4.972694      0.166192     0.195173
H      5.417555     -0.451534     2.156382
H      5.763073     -0.427605    -0.255125
C      4.103631      0.954177    -0.692740
C      3.179073      1.788136    -0.211010
H      4.229938      0.839541    -1.766038
H      2.547337      2.353108    -0.892828
C      3.013360      2.036867     1.259617
C      1.651409      1.656627     1.913012
H      3.317874      3.068292     1.472434
H      1.511544      2.322117     2.771375
C      1.931526     -0.880391     1.533314
H      2.532843     -0.877456     0.619884
H      2.185554     -1.803115     2.066627
C      0.458669     -0.905679     1.115068
C      0.133109     -2.148110     0.325574
H     -0.172684     -0.886583     2.017762
H      0.825180     -2.986120     0.360398
C     -0.983004     -2.217584    -0.387151
C     -1.959401     -1.065579    -0.358170
H     -1.246150     -3.110231    -0.946895
H     -2.451177     -1.091976     0.620386
C     -3.042874     -1.163175    -1.414295
C     -2.718052     -1.427970    -2.744987
C     -4.381233     -0.964982    -1.082187
C     -3.705452     -1.497813    -3.718321
H     -1.678620     -1.585316    -3.020624
C     -5.373312     -1.032343    -2.053899
H     -4.648848     -0.752599    -0.051089
C     -5.038770     -1.299754    -3.375306
H     -3.434112     -1.707162    -4.748727
H     -6.411170     -0.875651    -1.775728
H     -5.811699     -1.353854    -4.135432
C      0.341984      1.611849     1.134373
H     -0.472266      1.650569     1.867003
H      0.247688      2.510213     0.513366
C      0.159006      0.351717     0.276694
C     -1.212722      0.290637    -0.479901
H      0.922693      0.366623    -0.506549
H     -1.000224      0.455792    -1.538084
C     -2.129717      1.439751    -0.113499
O     -2.245902      2.457644    -0.744724
O     -2.831302      1.230250     1.027442
H     -3.376157      2.019287     1.161319
