49
 -1042.14399780 -1041.77232800  0.00 0.00
C     -1.111595     -2.339486    -1.335328
C     -2.571016     -2.366828    -0.797851
H     -0.814707     -3.199010    -1.944164
H     -3.252868     -1.676844    -1.308955
C     -3.185179     -3.733974    -0.734061
C     -3.535620     -4.311560     0.417039
H     -3.356683     -4.249681    -1.676779
H     -4.000274     -5.293868     0.413869
C     -3.325546     -3.648731     1.713491
C     -2.641476     -2.506653     1.797701
H     -3.738337     -4.115067     2.603554
H     -2.482408     -2.028823     2.761552
C     -2.034168     -1.887745     0.579131
C     -0.624298     -2.384486     0.137243
H     -2.048862     -0.795723     0.647960
H     -0.533110     -3.429349     0.450458
C     -0.757080     -1.032100    -2.049809
H     -1.443809     -0.233284    -1.739685
H     -0.891698     -1.151038    -3.130826
C      0.671411     -0.577402    -1.734592
C      1.089215      0.600505    -2.573120
H      1.350013     -1.411456    -1.981103
H      0.802462      0.582569    -3.623386
C      1.787273      1.630474    -2.112777
C      2.257020      1.758955    -0.686756
H      2.037792      2.455039    -2.776252
H      3.322915      2.012988    -0.708071
C      1.546935      2.904348     0.026807
C      2.261006      3.729767     0.893162
C      0.187837      3.154071    -0.158852
C      1.636137      4.770872     1.568257
H      3.323359      3.556233     1.042073
C     -0.441195      4.194857     0.512305
H     -0.380720      2.538337    -0.848103
C      0.279993      5.005936     1.380999
H      2.212430      5.401122     2.238658
H     -1.500229      4.374332     0.353897
H     -0.212465      5.818869     1.905222
C      0.631091     -1.619380     0.536253
H      1.506885     -2.250746     0.329535
H      0.615798     -1.437504     1.613671
C      0.797855     -0.300789    -0.228180
C      2.133338      0.393034     0.050829
H     -0.004406      0.383703     0.070235
H      2.943951     -0.240920    -0.329712
C      2.395781      0.605727     1.527733
O      1.574233      0.661214     2.403328
O      3.718558      0.763822     1.776051
H      3.804461      0.925675     2.727348
49
 -1042.14290322 -1041.77099700  0.69 0.84
C     -0.858621     -2.269099    -1.602701
C     -2.369163     -2.345704    -1.239116
H     -0.479127     -3.086172    -2.223856
H     -3.000574     -1.632210    -1.781748
C     -2.961408     -3.721012    -1.330463
C     -3.429922     -4.374258    -0.264969
H     -3.014596     -4.177883    -2.316610
H     -3.872867     -5.359619    -0.381986
C     -3.381569     -3.792403     1.085309
C     -2.732963     -2.650202     1.317931
H     -3.884970     -4.318513     1.891442
H     -2.694559     -2.231977     2.321043
C     -2.001805     -1.948885     0.217560
C     -0.542365     -2.401400    -0.089334
H     -2.043977     -0.863567     0.351352
H     -0.467901     -3.462754     0.167645
C     -0.447799     -0.916084    -2.191674
H     -1.182724     -0.146573    -1.920354
H     -0.450152     -0.971060    -3.286057
C      0.923940     -0.460917    -1.682975
C      1.410194      0.774312    -2.392801
H      1.645811     -1.266796    -1.897209
H      1.246560      0.818288    -3.468373
C      2.028627      1.782665    -1.792042
C      2.329086      1.825196    -0.316639
H      2.335935      2.651087    -2.370161
H      3.386906      2.086383    -0.195584
C      1.526308      2.918027     0.380762
C      2.117629      3.674652     1.391223
C      0.200975      3.184418     0.039408
C      1.403695      4.666688     2.051747
H      3.150432      3.482191     1.668681
C     -0.516214      4.176000     0.696824
H     -0.270309      2.619912    -0.758653
C      0.081986      4.920137     1.706984
H      1.883840      5.244032     2.835959
H     -1.547221      4.369568     0.416750
H     -0.478788      5.695105     2.219944
C      0.646095     -1.648426     0.494887
H      1.552640     -2.250381     0.342300
H      0.511874     -1.548744     1.575264
C      0.867291     -0.278123    -0.157808
C      2.148484      0.414709     0.316577
H      0.018084      0.372848     0.079501
H      3.007327     -0.183812    -0.007690
C      2.309199      0.549353     1.817551
O      3.375329      0.594196     2.378173
O      1.144511      0.670644     2.487627
H      1.376836      0.816162     3.416359
49
 -1042.13845311 -1041.76798400  3.48 2.73
C      0.043258     -1.553611    -2.219760
C     -1.435040     -1.101338    -2.005242
H      0.098764     -2.173592    -3.117939
H     -1.468912     -0.102963    -1.558098
C     -2.348529     -1.151205    -3.189957
C     -3.126515     -2.207232    -3.427794
H     -2.341496     -0.307996    -3.877526
H     -3.767104     -2.234656    -4.304714
C     -3.138867     -3.365190    -2.520666
C     -2.443778     -3.371070    -1.382099
H     -3.740357     -4.226633    -2.797683
H     -2.466763     -4.244707    -0.733642
C     -1.607935     -2.209171    -0.936913
C     -0.070224     -2.470754    -0.958206
H     -1.965132     -1.847434     0.034589
H      0.174807     -3.515787    -1.165192
C      1.106639     -0.445633    -2.271719
H      0.612150      0.500496    -2.525229
H      1.821535     -0.638283    -3.078595
C      1.884101     -0.254133    -0.956264
C      2.576911      1.081419    -0.918137
H      2.672399     -1.022537    -0.928125
H      3.069282      1.403416    -1.834704
C      2.625246      1.865419     0.150553
C      1.993132      1.516922     1.473475
H      3.125794      2.829285     0.094208
H      2.729367      1.716980     2.260045
C      0.786771      2.403389     1.762350
C     -0.122280      2.752560     0.764282
C      0.570009      2.880313     3.053615
C     -1.222924      3.548963     1.052933
H      0.041956      2.410894    -0.252608
C     -0.530371      3.675876     3.347948
H      1.273870      2.626894     3.841792
C     -1.433028      4.011641     2.347041
H     -1.919108      3.811201     0.262086
H     -0.679084      4.036252     4.361243
H     -2.293624      4.633771     2.571790
C      0.674064     -2.005359     0.296237
H      1.625344     -2.545836     0.383161
H      0.079188     -2.262166     1.175540
C      0.983608     -0.505318     0.261445
C      1.671675     -0.004775     1.531511
H      0.048670      0.054166     0.148773
H      2.632345     -0.522604     1.645839
C      0.858631     -0.290916     2.777974
O     -0.323764     -0.503055     2.827929
O      1.628311     -0.257996     3.891948
H      1.037009     -0.417906     4.642506
49
 -1042.13590506 -1041.76457300  5.08 4.87
C     -1.940577      1.572139     1.421634
C     -3.158715      0.606960     1.486429
H     -2.118703      2.585144     1.795340
H     -3.091768     -0.151330     2.275557
C     -4.491893      1.291655     1.551378
C     -5.401471      1.187526     0.580187
H     -4.710030      1.878099     2.441642
H     -6.364238      1.681270     0.680854
C     -5.149749      0.402034    -0.637971
C     -3.945342     -0.115718    -0.884310
H     -5.969336      0.256819    -1.336010
H     -3.765563     -0.686664    -1.792231
C     -2.804823      0.121816     0.053574
C     -1.978821      1.431872    -0.123700
H     -2.139619     -0.746481     0.086076
H     -2.653160      2.190551    -0.533277
C     -0.673303      0.987090     2.052360
H     -0.744697     -0.107596     2.099956
H     -0.578345      1.334900     3.087164
C      0.580602      1.345664     1.248921
C      1.845715      0.938698     1.955418
H      0.606330      2.443443     1.142312
H      1.894542      1.134302     3.025440
C      2.887784      0.379945     1.353813
C      2.939333      0.077630    -0.122426
H      3.761050      0.093897     1.935432
H      3.906260      0.438897    -0.498060
C      2.906062     -1.424489    -0.386284
C      3.651848     -1.960669    -1.433853
C      2.142024     -2.288517     0.396425
C      3.630015     -3.322795    -1.703642
H      4.252784     -1.304952    -2.058426
C      2.119194     -3.652265     0.131975
H      1.570335     -1.893816     1.229863
C      2.861679     -4.174686    -0.920308
H      4.217774     -3.718262    -2.526260
H      1.519022     -4.310019     0.753164
H      2.842942     -5.240208    -1.126359
C     -0.674149      1.428802    -0.910288
H     -0.382026      2.469710    -1.109537
H     -0.836281      0.951116    -1.879563
C      0.471732      0.741252    -0.160052
C      1.822911      0.866781    -0.867365
H      0.243302     -0.326485    -0.068561
H      2.114728      1.927685    -0.839749
C      1.779138      0.427790    -2.325980
O      1.008394     -0.360579    -2.788945
O      2.736249      0.974962    -3.122209
H      3.260857      1.617083    -2.629546
49
 -1042.13335701 -1041.76346400  6.68 5.56
C     -0.652490     -1.908929    -2.399356
C     -2.123162     -2.309642    -2.711469
H      0.118263     -2.475649    -2.930574
H     -2.659569     -1.597625    -3.349924
C     -2.289220     -3.700268    -3.249312
C     -2.950376     -4.652690    -2.587982
H     -1.858764     -3.913342    -4.225699
H     -3.066883     -5.639738    -3.027283
C     -3.551796     -4.406408    -1.268292
C     -3.330770     -3.264346    -0.615298
H     -4.179280     -5.180248    -0.835324
H     -3.772347     -3.094274     0.363796
C     -2.430571     -2.217728    -1.190803
C     -0.899966     -2.354927    -0.935004
H     -2.774256     -1.214887    -0.919500
H     -0.679434     -3.423396    -0.846096
C     -0.407234     -0.404476    -2.539232
H     -1.359276      0.136165    -2.450864
H     -0.021243     -0.184150    -3.540919
C      0.541499      0.150852    -1.474588
C      0.800076      1.625311    -1.660735
H      1.500786     -0.387943    -1.544799
H      0.542064      2.089300    -2.609990
C      1.340772      2.335638    -0.679659
C      1.772186      1.635625     0.586225
H      1.551351      3.394104    -0.792283
H      2.649642      1.032015     0.318182
C      2.218780      2.564717     1.700054
C      1.554701      3.762025     1.967664
C      3.306215      2.214954     2.498324
C      1.971333      4.587026     3.004199
H      0.694585      4.045710     1.369850
C      3.725869      3.036887     3.536658
H      3.834970      1.285498     2.302709
C      3.058862      4.228582     3.792710
H      1.441275      5.514592     3.198831
H      4.576454      2.745870     4.145581
H      3.383101      4.874641     4.602372
C     -0.215253     -1.593358     0.189850
H      0.787705     -2.016503     0.335394
H     -0.757268     -1.751706     1.131016
C     -0.068702     -0.093361    -0.083090
C      0.701858      0.599820     1.069580
H     -1.064355      0.362420    -0.118810
H      1.235386     -0.148728     1.661544
C     -0.285479      1.267883     2.007221
O     -1.197681      1.979000     1.673628
O     -0.031201      0.987231     3.303712
H     -0.681155      1.478456     3.827790
49
 -1042.13414654 -1041.76304600  6.18 5.82
C      2.581587      0.354621    -0.829196
C      2.606253      1.157915    -2.161507
H      3.582859     -0.043070    -0.638209
H      1.797909      1.896167    -2.164707
C      3.896520      1.783790    -2.587847
C      4.788753      1.093820    -3.299576
H      4.109129      2.803437    -2.275333
H      5.737899      1.540691    -3.581383
C      4.519970     -0.291159    -3.716018
C      3.328989     -0.863757    -3.528516
H      5.321101     -0.845111    -4.197883
H      3.160951     -1.890644    -3.846374
C      2.175147     -0.141616    -2.897252
C      1.726633     -0.733927    -1.529255
H      1.364705     -0.024891    -3.626540
H      2.059125     -1.760025    -1.344584
C      1.986642      0.939470     0.451024
H      1.377315      1.825988     0.234365
H      2.776393      1.259012     1.139090
C      1.099497     -0.131948     1.093647
C      0.724446      0.131120     2.526788
H      1.678764     -1.069990     1.084053
H      1.458529      0.630230     3.156643
C     -0.428107     -0.260671     3.056211
C     -1.513692     -0.977446     2.292625
H     -0.643510     -0.052049     4.101659
H     -1.759697     -1.895531     2.839012
C     -2.790082     -0.142065     2.253042
C     -4.030865     -0.765877     2.374503
C     -2.755268      1.242427     2.093053
C     -5.208192     -0.029899     2.329449
H     -4.077502     -1.844044     2.499992
C     -3.930290      1.982353     2.047890
H     -1.799210      1.749976     2.017686
C     -5.161756      1.348809     2.164643
H     -6.163719     -0.536360     2.425937
H     -3.882782      3.059846     1.923079
H     -6.079492      1.927357     2.130074
C      0.225028     -0.594587    -1.259385
H     -0.281538     -1.487529    -1.639112
H     -0.165221      0.237837    -1.853832
C     -0.150815     -0.337327     0.226815
C     -1.013145     -1.420386     0.883409
H     -0.721535      0.596270     0.263288
H     -0.405136     -2.319899     1.029106
C     -2.206412     -1.880530     0.071845
O     -2.691233     -2.981549     0.147737
O     -2.719024     -0.927594    -0.733387
H     -3.505925     -1.311652    -1.146768
49
 -1042.13186766 -1041.76185000  7.61 6.58
C     -1.943236     -0.521015    -2.377263
C     -3.456914     -0.763238    -2.110310
H     -1.601311     -0.725987    -3.396278
H     -4.052791      0.153208    -2.024371
C     -4.114647     -1.709614    -3.070773
C     -4.616946     -2.886307    -2.690366
H     -4.187474     -1.396286    -4.110256
H     -5.106729     -3.529436    -3.416524
C     -4.544359     -3.346572    -1.295073
C     -3.841001     -2.671094    -0.384804
H     -5.075984     -4.254102    -1.023431
H     -3.785551     -3.023246     0.642523
C     -3.072178     -1.446868    -0.768569
C     -1.639276     -1.640982    -1.348429
H     -3.057577     -0.722241     0.051340
H     -1.625519     -2.605315    -1.865993
C     -1.475424      0.863633    -1.921349
H     -2.170486      1.261244    -1.169384
H     -1.505789      1.561247    -2.765812
C     -0.077104      0.849841    -1.299335
C      0.382506      2.231358    -0.903539
H      0.631422      0.442376    -2.038979
H     -0.142855      3.095041    -1.304822
C      1.418332      2.382174    -0.088773
C      2.178089      1.162255     0.370732
H      1.780859      3.365421     0.192358
H      2.720685      0.795681    -0.511213
C      3.231407      1.418369     1.433843
C      4.408561      0.671310     1.427807
C      3.052541      2.365500     2.441503
C      5.385187      0.864685     2.396371
H      4.564562     -0.071738     0.649891
C      4.027081      2.564184     3.411332
H      2.138439      2.948635     2.473458
C      5.197480      1.814558     3.393203
H      6.295028      0.272666     2.370785
H      3.868725      3.306716     4.187771
H      5.957989      1.969701     4.151943
C     -0.404905     -1.514116    -0.468436
H      0.456995     -1.913510    -1.018941
H     -0.515188     -2.137899     0.427329
C     -0.086566     -0.070987    -0.065578
C      1.224071     -0.009863     0.765856
H     -0.899011      0.303138     0.567827
H      1.784053     -0.937608     0.627623
C      0.894556      0.002393     2.243919
O      1.219003     -0.846296     3.033325
O      0.165123      1.080278     2.612249
H      0.016124      0.998707     3.565611
49
 -1042.13028858 -1041.75956400  8.60 8.01
C     -1.342174     -2.486119     1.135208
C     -1.247402     -3.897506     0.487523
H     -2.099639     -2.373429     1.916791
H     -0.371775     -4.479425     0.798940
C     -2.487337     -4.730534     0.627082
C     -3.220065     -5.110400    -0.421903
H     -2.772416     -5.038001     1.631168
H     -4.097699     -5.734231    -0.275564
C     -2.868245     -4.721112    -1.796199
C     -1.886419     -3.849670    -2.033164
H     -3.430903     -5.158865    -2.615849
H     -1.638884     -3.560685    -3.051848
C     -1.141826     -3.212403    -0.903261
C     -1.757042     -1.935644    -0.255933
H     -0.096485     -3.036443    -1.175488
H     -2.844304     -2.009926    -0.357048
C      0.010489     -1.957878     1.624012
H      0.825285     -2.478391     1.102892
H      0.132677     -2.182810     2.689381
C      0.173759     -0.458135     1.377066
C      1.463317      0.104913     1.921331
H     -0.668317      0.062601     1.861280
H      2.093506     -0.514242     2.555036
C      1.816433      1.338065     1.583344
C      0.872394      2.122710     0.696747
H      2.753713      1.780878     1.898407
H     -0.068690      2.230044     1.257727
C      1.326435      3.541712     0.388453
C      1.850262      4.315106     1.426679
C      1.189706      4.137872    -0.862807
C      2.246086      5.628172     1.218876
H      1.942296      3.881262     2.418062
C      1.585994      5.454274    -1.077155
H      0.772908      3.586866    -1.699331
C      2.119746      6.205468    -0.040360
H      2.652891      6.204352     2.044542
H      1.472942      5.891402    -2.064826
H      2.429697      7.232002    -0.207816
C     -1.295772     -0.545765    -0.671439
H     -2.009937      0.192952    -0.283007
H     -1.315469     -0.455422    -1.763935
C      0.095252     -0.193223    -0.140870
C      0.515705      1.262325    -0.528606
H      0.821664     -0.877545    -0.598773
H     -0.312353      1.726886    -1.070945
C      1.678262      1.165617    -1.492926
O      2.842292      1.300748    -1.231407
O      1.250168      0.857716    -2.742433
H      2.039270      0.773863    -3.297652
49
 -1042.12919400 -1041.75839200  9.29 8.74
C     -2.796014      0.549926    -1.151524
C     -4.095299      0.511897    -0.296263
H     -2.941705      0.599763    -2.234853
H     -4.322941      1.451254     0.221556
C     -5.310526      0.029152    -1.031788
C     -5.946541     -1.098514    -0.707055
H     -5.678696      0.646868    -1.848413
H     -6.837763     -1.397149    -1.252357
C     -5.485831     -1.960435     0.392410
C     -4.327622     -1.724579     1.010871
H     -6.111394     -2.798114     0.687359
H     -3.990393     -2.372052     1.816804
C     -3.444840     -0.598643     0.574902
C     -2.459421     -0.861939    -0.602814
H     -2.913152     -0.166884     1.428475
H     -2.920391     -1.613799    -1.251025
C     -1.813496      1.631477    -0.692891
H     -2.023602      1.906176     0.349746
H     -1.960358      2.541087    -1.285850
C     -0.354238      1.179713    -0.771151
C      0.614646      2.259618    -0.357831
H     -0.136334      0.881982    -1.809526
H      0.251848      3.274078    -0.210633
C      1.882968      1.941806    -0.136913
C      2.314277      0.511947    -0.382754
H      2.604614      2.669041     0.215561
H      2.166757      0.329809    -1.458612
C      3.791463      0.241944    -0.129675
C      4.267638     -0.944623     0.425900
C      4.728885      1.194719    -0.536822
C      5.632476     -1.158029     0.596006
H      3.586563     -1.730328     0.733088
C      6.089847      0.985569    -0.368870
H      4.386855      2.113649    -1.003022
C      6.550234     -0.194049     0.206140
H      5.975144     -2.089922     1.035885
H      6.794401      1.746300    -0.691525
H      7.614144     -0.360948     0.341035
C     -1.004344     -1.227231    -0.348781
H     -0.567796     -1.592145    -1.288165
H     -0.941035     -2.055227     0.367009
C     -0.161078     -0.047899     0.141143
C      1.336677     -0.459830     0.315142
H     -0.534328      0.258945     1.127579
H      1.470615     -1.456746    -0.110957
C      1.580526     -0.637073     1.798137
O      1.404955     -1.671610     2.392193
O      1.968513      0.490943     2.422682
H      2.065091      0.270101     3.360446
