49
 -1042.14588192 -1041.77439700  0.00 0.00
C     -2.197612     -0.293710    -0.165565
C     -3.304794     -1.388189    -0.128409
H     -2.600399      0.557914    -0.723009
H     -3.125249     -2.080936     0.699702
C     -4.732498     -0.941826    -0.149140
C     -5.344119     -0.674476    -1.304081
H     -5.253338     -0.806244     0.795917
H     -6.370405     -0.318867    -1.319336
C     -4.646952     -0.845944    -2.587933
C     -3.443137     -1.418291    -2.664330
H     -5.145631     -0.503237    -3.490566
H     -2.953232     -1.533184    -3.628891
C     -2.719573     -1.939466    -1.457312
C     -1.390708     -1.194811    -1.134973
H     -2.623719     -3.030046    -1.520570
H     -0.917878     -0.676348    -1.972995
C     -1.532869      0.203730     1.109245
H     -2.295991      0.443842     1.859703
H     -1.020365      1.148342     0.893011
C     -0.507761     -0.771741     1.722905
C      0.293844     -0.066203     2.786849
H     -1.054976     -1.602188     2.188780
H     -0.180395      0.097070     3.752498
C      1.524720      0.386281     2.579672
C      2.289448      0.215968     1.288349
H      2.052254      0.899064     3.380794
H      3.042642     -0.564941     1.453755
C      3.025407      1.479251     0.876004
C      4.313580      1.405560     0.349678
C      2.413563      2.728604     0.977206
C      4.977808      2.554049    -0.064550
H      4.796964      0.437146     0.257573
C      3.075436      3.878147     0.565963
H      1.411658      2.800813     1.391036
C      4.360909      3.794455     0.042643
H      5.981533      2.478398    -0.471723
H      2.586061      4.843426     0.653959
H      4.878459      4.692537    -0.279488
C     -0.388048     -2.095283    -0.410241
H      0.269635     -2.585073    -1.136502
H     -0.928958     -2.905787     0.094902
C      0.429061     -1.374031     0.666440
C      1.376924     -0.279670     0.143782
H      1.060905     -2.120628     1.164919
H      0.797551      0.555717    -0.256552
C      2.232564     -0.833642    -0.974647
O      3.121008     -1.635817    -0.834515
O      1.888722     -0.350145    -2.187503
H      2.477949     -0.769583    -2.832452
49
 -1042.14396191 -1041.77269200  1.20 1.07
C     -2.217735     -0.331955    -0.097211
C     -3.283092     -1.444772    -0.325208
H     -2.689703      0.624864    -0.341968
H     -3.017853     -2.344823     0.238310
C     -4.721611     -1.090936    -0.117024
C     -5.428977     -0.519668    -1.093147
H     -5.171887     -1.276130     0.855485
H     -6.464179     -0.232071    -0.933067
C     -4.828217     -0.256256    -2.409711
C     -3.616327     -0.712777    -2.734539
H     -5.405870      0.316463    -3.130273
H     -3.199140     -0.503493    -3.717239
C     -2.785388     -1.535388    -1.793806
C     -1.460028     -0.853323    -1.344959
H     -2.660258     -2.548732    -2.193907
H     -1.064989     -0.083735    -2.013391
C     -1.473335     -0.204883     1.224084
H     -2.182832     -0.255929     2.059099
H     -1.022543      0.792583     1.277398
C     -0.359239     -1.249808     1.443045
C      0.508573     -0.831667     2.603283
H     -0.828412     -2.212906     1.684901
H      0.115707     -0.980604     3.607082
C      1.699018     -0.264855     2.447513
C      2.354487     -0.011219     1.108685
H      2.276161      0.026695     3.322159
H      3.143957     -0.764056     0.992596
C      3.013411      1.355095     1.032745
C      2.361120      2.490936     1.511324
C      4.269344      1.501947     0.448091
C      2.951675      3.743720     1.409722
H      1.383996      2.390015     1.975344
C      4.863111      2.754537     0.342887
H      4.788992      0.625563     0.070298
C      4.205425      3.879833     0.823646
H      2.431444      4.617851     1.789442
H      5.843110      2.849786    -0.114749
H      4.666717      4.859132     0.743780
C     -0.380478     -1.877619    -0.992086
H      0.228312     -2.097187    -1.875742
H     -0.855616     -2.826810    -0.712692
C      0.501683     -1.460274     0.188966
C      1.351600     -0.200355    -0.051837
H      1.197790     -2.282570     0.398420
H      0.701579      0.674842    -0.114322
C      2.052725     -0.264807    -1.390430
O      1.792065      0.415229    -2.348106
O      3.020244     -1.212359    -1.430287
H      3.395461     -1.187122    -2.322607
49
 -1042.14342359 -1041.77258600  1.54 1.14
C     -2.764574     -0.395600    -0.690504
C     -3.542418     -1.407310     0.205529
H     -3.372766      0.026394    -1.495563
H     -3.646779     -1.081736     1.247121
C     -4.890154     -1.790597    -0.328705
C     -5.164351     -3.009296    -0.795493
H     -5.660891     -1.022246    -0.324088
H     -6.160654     -3.241811    -1.161495
C     -4.148354     -4.072310    -0.825240
C     -2.887688     -3.832535    -0.464181
H     -4.449695     -5.063650    -1.151883
H     -2.144957     -4.626409    -0.502815
C     -2.435168     -2.471349    -0.035427
C     -1.825140     -1.549249    -1.135694
H     -1.759519     -2.565219     0.819052
H     -2.102814     -1.926311    -2.123920
C     -2.025670      0.718718     0.044438
H     -2.735315      1.318984     0.626067
H     -1.567270      1.399934    -0.683871
C     -0.936268      0.164365     0.973681
C     -0.400484      1.224455     1.899476
H     -1.420406     -0.572677     1.626393
H     -1.131897      1.698967     2.551608
C      0.874425      1.577466     1.998379
C      1.963659      0.977906     1.146809
H      1.173473      2.321983     2.732352
H      2.429625      0.155765     1.705484
C      3.053627      1.977566     0.800997
C      4.394426      1.599450     0.825012
C      2.731939      3.279444     0.417271
C      5.393082      2.501575     0.477838
H      4.657802      0.585207     1.111263
C      3.727353      4.183911     0.072150
H      1.690729      3.588797     0.395913
C      5.062858      3.797533     0.101030
H      6.432845      2.189756     0.502733
H      3.459936      5.194535    -0.221437
H      5.841413      4.503890    -0.169251
C     -0.339435     -1.227294    -1.112356
H     -0.145888     -0.546051    -1.951040
H      0.241830     -2.133520    -1.315787
C      0.175583     -0.571259     0.192639
C      1.347105      0.375606    -0.129949
H      0.578895     -1.353011     0.846036
H      0.994601      1.190743    -0.770351
C      2.418453     -0.390646    -0.877442
O      3.015948     -1.338645    -0.433341
O      2.651319      0.092910    -2.114935
H      3.347630     -0.457129    -2.504504
49
 -1042.14238284 -1041.77148500  2.20 1.83
C     -2.036451      0.538942    -0.340369
C     -3.166651      0.702032    -1.395577
H     -1.289684      1.338884    -0.337001
H     -4.146455      0.938239    -0.962996
C     -2.852863      1.675716    -2.492747
C     -2.689138      1.303057    -3.763251
H     -2.768918      2.725100    -2.217353
H     -2.481113      2.047489    -4.526975
C     -2.790756     -0.104777    -4.176900
C     -2.934405     -1.078693    -3.277103
H     -2.740853     -0.334879    -5.237410
H     -2.993684     -2.117263    -3.594231
C     -2.966215     -0.782251    -1.810963
C     -1.611160     -0.781426    -1.037629
H     -3.686274     -1.434649    -1.306704
H     -0.786782     -0.612854    -1.734898
C     -2.528472      0.250262     1.069835
H     -3.392657     -0.422710     1.004150
H     -2.888134      1.166354     1.551019
C     -1.445319     -0.417806     1.953428
C     -0.662951      0.593494     2.749050
H     -1.986764     -1.025550     2.691294
H     -1.250151      1.273322     3.363991
C      0.660779      0.673159     2.791289
C      1.566927     -0.221026     1.983779
H      1.135800      1.401681     3.444062
H      1.840598     -1.089412     2.596969
C      2.850439      0.474269     1.564699
C      4.071439     -0.194086     1.623889
C      2.825924      1.781484     1.078541
C      5.243187      0.429561     1.211649
H      4.102101     -1.216967     1.987795
C      3.994851      2.408316     0.667913
H      1.880999      2.315391     1.028286
C      5.209028      1.733510     0.733115
H      6.185908     -0.106518     1.265100
H      3.958356      3.427429     0.294889
H      6.123250      2.222527     0.411834
C     -1.295417     -1.923126    -0.072601
H     -0.723724     -2.712656    -0.571524
H     -2.224728     -2.392277     0.272381
C     -0.538156     -1.390589     1.155390
C      0.801856     -0.743406     0.752257
H     -0.284848     -2.232650     1.809692
H      0.632086      0.093828     0.073015
C      1.653584     -1.772321     0.040359
O      2.074508     -2.782751     0.545100
O      1.902291     -1.455034    -1.247813
H      2.448810     -2.168367    -1.610726
49
 -1042.14164714 -1041.77102000  2.66 2.12
C     -2.687939      0.711055    -0.782993
C     -3.811131     -0.067542    -0.032282
H     -3.071888      1.412596    -1.528935
H     -3.849847      0.144485     1.042600
C     -5.179414      0.110310    -0.619574
C     -5.832427     -0.870305    -1.244329
H     -5.637482      1.092275    -0.517968
H     -6.827863     -0.695144    -1.643136
C     -5.244591     -2.208441    -1.408394
C     -3.998539     -2.468400    -1.012241
H     -5.851944     -2.985277    -1.864338
H     -3.573714     -3.460155    -1.151137
C     -3.127327     -1.412764    -0.405494
C     -2.181886     -0.633977    -1.371272
H     -2.569868     -1.839176     0.432986
H     -2.521176     -0.767363    -2.402204
C     -1.648708      1.400845     0.095390
H     -2.136496      2.135710     0.746768
H     -0.947565      1.962361    -0.534956
C     -0.865383      0.394936     0.950870
C     -0.042656      1.085189     2.007270
H     -1.605620     -0.199120     1.501320
H     -0.597015      1.705882     2.709207
C      1.269079      0.958753     2.157690
C      2.125328      0.118485     1.243353
H      1.770733      1.461805     2.980937
H      2.246885     -0.869674     1.704904
C      3.510578      0.705695     1.038429
C      3.676641      2.064335     0.771791
C      4.639161     -0.109550     1.080712
C      4.941383      2.596005     0.557913
H      2.805824      2.713092     0.738482
C      5.907064      0.418202     0.865322
H      4.523935     -1.170764     1.283433
C      6.062074      1.773666     0.603468
H      5.053282      3.656663     0.354287
H      6.775346     -0.232560     0.903701
H      7.050751      2.189105     0.435867
C     -0.679713     -0.854614    -1.297594
H     -0.216713     -0.188801    -2.036487
H     -0.436983     -1.874354    -1.617300
C     -0.038461     -0.584701     0.086146
C      1.400796     -0.066697    -0.102723
H      0.028616     -1.529252     0.637484
H      1.368754      0.898514    -0.617555
C      2.185419     -0.983218    -1.017371
O      2.612645     -0.692735    -2.103284
O      2.361356     -2.217121    -0.484998
H      2.866700     -2.728261    -1.133762
49
 -1042.14073199 -1041.76993000  3.23 2.80
C     -1.888801     -1.038524    -0.037982
C     -3.420019     -0.945112    -0.292533
H     -1.559751     -0.647767     0.929590
H     -3.929121     -1.916580    -0.292712
C     -4.142468      0.000853     0.620390
C     -4.714061      1.126080     0.188119
H     -4.195833     -0.267854     1.673520
H     -5.242014      1.771523     0.884818
C     -4.661386      1.528099    -1.225723
C     -3.940036      0.839803    -2.111514
H     -5.222159      2.406372    -1.532772
H     -3.896888      1.156107    -3.151158
C     -3.131107     -0.349318    -1.698816
C     -1.654409     -0.107176    -1.258087
H     -3.171450     -1.122820    -2.472491
H     -1.521747      0.931862    -0.947651
C     -1.288017     -2.411134    -0.301918
H     -1.780045     -2.840939    -1.183564
H     -1.496975     -3.093022     0.529641
C      0.237972     -2.355180    -0.564345
C      1.036694     -2.568869     0.695140
H      0.466898     -3.211867    -1.213072
H      0.804906     -3.471311     1.258049
C      2.013688     -1.780294     1.123865
C      2.415485     -0.509160     0.416174
H      2.573420     -2.050169     2.016255
H      3.228984     -0.746905    -0.280748
C      2.920966      0.554726     1.374033
C      4.076461      1.277858     1.087892
C      2.221040      0.848638     2.543876
C      4.527324      2.270179     1.950968
H      4.628276      1.062973     0.177096
C      2.668339      1.837875     3.409431
H      1.319520      0.290805     2.781896
C      3.824354      2.553092     3.115251
H      5.431028      2.822477     1.711809
H      2.112668      2.051888     4.317416
H      4.174250      3.326655     3.791545
C     -0.517640     -0.555945    -2.174590
H     -0.201176      0.260864    -2.831255
H     -0.858469     -1.363656    -2.833549
C      0.664107     -1.080332    -1.340994
C      1.213984      0.008034    -0.396867
H      1.481666     -1.357372    -2.016256
H      0.438134      0.315195     0.305477
C      1.568671      1.255914    -1.174388
O      0.996138      2.311850    -1.103014
O      2.620317      1.068691    -2.007844
H      2.768284      1.912896    -2.458406
49
 -1042.13881199 -1041.76792600  4.44 4.06
C     -1.418344     -1.353280    -1.064008
C     -1.913322     -1.778015    -2.478234
H     -2.213255     -1.600777    -0.353290
H     -1.062158     -1.909506    -3.153518
C     -2.852545     -2.938523    -2.572446
C     -4.164603     -2.765727    -2.405506
H     -2.443772     -3.931267    -2.745910
H     -4.844906     -3.611797    -2.440888
C     -4.727650     -1.428673    -2.162175
C     -3.983518     -0.324028    -2.253359
H     -5.783409     -1.355447    -1.915481
H     -4.429303      0.651336    -2.070324
C     -2.529377     -0.359564    -2.622392
C     -1.569977      0.127088    -1.497509
H     -2.376386      0.131623    -3.590664
H     -2.014899      0.793301    -0.751335
C     -0.081745     -1.831661    -0.516018
H      0.015562     -2.914234    -0.663173
H     -0.072693     -1.678370     0.569404
C      1.153708     -1.126345    -1.114315
C      2.370362     -1.446181    -0.282823
H      1.313553     -1.510025    -2.130677
H      2.817620     -2.431129    -0.401175
C      2.886745     -0.598686     0.599208
C      2.360433      0.795963     0.843478
H      3.760898     -0.887492     1.178289
H      3.046225      1.496489     0.349081
C      2.313576      1.161847     2.317129
C      1.840539      0.252792     3.263582
C      2.699247      2.431380     2.742597
C      1.764315      0.601358     4.605846
H      1.540247     -0.741884     2.945748
C      2.621396      2.784432     4.084579
H      3.058815      3.152782     2.014152
C      2.154991      1.869723     5.020755
H      1.398045     -0.118991     5.330997
H      2.927647      3.777444     4.399065
H      2.095244      2.143190     6.069441
C     -0.274681      0.716005    -2.058354
H     -0.377178      1.796950    -2.193715
H     -0.095580      0.303278    -3.059449
C      0.966200      0.394185    -1.220279
C      0.972200      0.999881     0.189534
H      1.836947      0.809430    -1.741940
H      0.216610      0.496843     0.804167
C      0.686713      2.495692     0.151005
O      1.273703      3.260654    -0.562588
O     -0.267094      2.956225     0.992246
H     -0.595153      2.241710     1.551242
49
 -1042.13881199 -1041.76774000  4.44 4.18
C     -1.241889     -1.877890    -1.013251
C     -2.707188     -1.525072    -0.611202
H     -1.179046     -2.926403    -1.317095
H     -2.965243     -0.507479    -0.916262
C     -3.782782     -2.465224    -1.059424
C     -4.220481     -3.454823    -0.280960
H     -4.186908     -2.335116    -2.061219
H     -4.988629     -4.136799    -0.634574
C     -3.677708     -3.657883     1.070813
C     -2.793936     -2.813657     1.604753
H     -4.021178     -4.519102     1.637386
H     -2.403634     -2.992956     2.604599
C     -2.290846     -1.598642     0.884379
C     -0.792667     -1.685383     0.460597
H     -2.532139     -0.705217     1.471803
H     -0.275841     -2.549709     0.887306
C     -0.511423     -1.001083    -2.016981
H     -0.939819     -1.128473    -3.018179
H      0.525216     -1.356458    -2.077849
C     -0.502287      0.505845    -1.660965
C      0.650371      1.161970    -2.376757
H     -1.416301      0.955181    -2.063640
H      0.703992      0.972743    -3.448762
C      1.588586      1.912586    -1.813345
C      1.597784      2.270170    -0.350768
H      2.397169      2.311395    -2.421858
H      1.841278      3.336056    -0.273458
C      2.669129      1.552990     0.463846
C      2.941646      1.997020     1.758627
C      3.402750      0.482164    -0.036776
C      3.909632      1.379708     2.538656
H      2.390307      2.844241     2.158541
C      4.375028     -0.138872     0.740931
H      3.210088      0.127517    -1.043987
C      4.630289      0.304137     2.031571
H      4.104398      1.741683     3.543547
H      4.934268     -0.975031     0.332518
H      5.388437     -0.182201     2.636976
C      0.050343     -0.428994     0.656919
H      1.074646     -0.642001     0.339532
H      0.102555     -0.173440     1.722199
C     -0.505701      0.762031    -0.132445
C      0.176236      2.086960     0.240573
H     -1.550030      0.885755     0.167886
H      0.249356      2.150501     1.331995
C     -0.690133      3.263413    -0.174091
O     -1.674982      3.222751    -0.863779
O     -0.233173      4.427065     0.346028
H     -0.829542      5.124020     0.035648
49
 -1042.13893759 -1041.76704700  4.36 4.61
C     -1.998579      0.320182    -1.658200
C     -3.395054     -0.364082    -1.582674
H     -1.543649      0.374654    -2.651471
H     -4.233546      0.331844    -1.459533
C     -3.686459     -1.316948    -2.704256
C     -3.860580     -2.625809    -2.508452
H     -3.771078     -0.900110    -3.705811
H     -4.095222     -3.275377    -3.347435
C     -3.759675     -3.230649    -1.171338
C     -3.340649     -2.516880    -0.125031
H     -4.031376     -4.276142    -1.056629
H     -3.260470     -2.974459     0.858207
C     -2.923205     -1.090764    -0.292369
C     -1.459316     -0.808785    -0.745748
H     -3.164678     -0.505060     0.599975
H     -1.148059     -1.651624    -1.371123
C     -1.989810      1.687136    -0.972754
H     -2.817005      1.735815    -0.252898
H     -2.182306      2.476145    -1.709085
C     -0.702267      1.995278    -0.201018
C      0.509719      2.174785    -1.076724
H     -0.868151      2.944429     0.323182
H      0.354646      2.557117    -2.084226
C      1.746052      1.936014    -0.655657
C      2.104690      1.458826     0.730138
H      2.586954      2.123270    -1.320361
H      2.695194      2.263184     1.185240
C      3.032049      0.246620     0.736392
C      3.711364     -0.066359     1.915969
C      3.242384     -0.554479    -0.381673
C      4.566155     -1.157130     1.980133
H      3.564704      0.559454     2.792494
C      4.101071     -1.648074    -0.321841
H      2.734626     -0.324717    -1.312582
C      4.763530     -1.955609     0.858129
H      5.084026     -1.382852     2.907454
H      4.249757     -2.261002    -1.205529
H      5.432118     -2.809334     0.903807
C     -0.356723     -0.484972     0.249912
H      0.600117     -0.588941    -0.266993
H     -0.351632     -1.232143     1.053224
C     -0.437472      0.920616     0.862485
C      0.850801      1.229477     1.639113
H     -1.267114      0.951798     1.578332
H      1.075336      0.376919     2.290661
C      0.661203      2.390977     2.595905
O     -0.309033      3.094603     2.698954
O      1.741982      2.553729     3.398181
H      1.544631      3.299429     3.983523
49
 -1042.13796862 -1041.76678300  4.97 4.78
C     -1.370061     -1.837323     0.945319
C     -2.707387     -1.559146     0.193374
H     -1.561349     -2.462817     1.821602
H     -2.553632     -1.535376    -0.888822
C     -3.866126     -2.453634     0.508797
C     -4.769105     -2.132983     1.435479
H     -3.940321     -3.397640    -0.027028
H     -5.591302     -2.806212     1.661166
C     -4.679721     -0.868576     2.181270
C     -3.748858      0.044996     1.902334
H     -5.402629     -0.687342     2.971991
H     -3.701986      0.968839     2.475406
C     -2.732107     -0.134232     0.814684
C     -1.275314     -0.336477     1.333962
H     -2.832558      0.681261     0.088970
H     -1.173129     -0.157972     2.408042
C     -0.173997     -2.381858     0.180876
H     -0.372379     -3.406742    -0.153763
H      0.664304     -2.446343     0.885570
C      0.274411     -1.524516    -1.032515
C      1.757821     -1.717670    -1.240305
H     -0.229854     -1.915134    -1.927484
H      2.105378     -2.750143    -1.227342
C      2.642690     -0.746222    -1.418167
C      2.281711      0.712912    -1.502950
H      3.694679     -0.995446    -1.537000
H      2.795335      1.113609    -2.384729
C      2.767475      1.542544    -0.318413
C      3.287192      0.967970     0.837817
C      2.712390      2.935449    -0.396186
C      3.727160      1.761133     1.892763
H      3.348373     -0.112526     0.915999
C      3.148278      3.731083     0.654142
H      2.328284      3.406183    -1.297582
C      3.656545      3.144755     1.808011
H      4.126626      1.290847     2.786140
H      3.094786      4.812224     0.569828
H      3.999089      3.762038     2.632286
C     -0.172731      0.398917     0.577340
H      0.786764      0.195542     1.060461
H     -0.328544      1.482493     0.639254
C     -0.120292     -0.036411    -0.890086
C      0.772975      0.872892    -1.761953
H     -1.130362      0.080270    -1.288806
H      0.473158      1.908807    -1.567254
C      0.474524      0.639549    -3.234030
O      1.252620      0.269422    -4.072756
O     -0.814972      0.922433    -3.533959
H     -0.923850      0.756577    -4.481754
49
 -1042.13690992 -1041.76660400  5.63 4.89
C      0.086894      0.598958     2.817073
C     -0.958557     -0.153151     3.696050
H      0.724178      1.279242     3.389070
H     -0.815633     -1.239884     3.715701
C     -1.058110      0.356396     5.102848
C     -2.125652      1.010221     5.562301
H     -0.208561      0.171316     5.757389
H     -2.155110      1.349575     6.594092
C     -3.290107      1.286295     4.707336
C     -3.287333      0.966848     3.413090
H     -4.157686      1.761387     5.156589
H     -4.151693      1.188593     2.790938
C     -2.097734      0.336212     2.758629
C     -1.080300      1.294473     2.065376
H     -2.432626     -0.446320     2.072342
H     -1.233012      2.314602     2.428453
C      0.942783     -0.271632     1.902252
H      1.518571     -0.989277     2.498671
H      1.676490      0.354992     1.378871
C      0.092875     -1.025438     0.868971
C      0.898491     -2.079913     0.155690
H     -0.673897     -1.575610     1.428304
H      1.356166     -2.836812     0.790506
C      1.049948     -2.167273    -1.159125
C      0.449190     -1.172243    -2.119399
H      1.612636     -2.993444    -1.587222
H     -0.517737     -1.559911    -2.466041
C      1.320827     -0.934851    -3.339723
C      0.771539     -0.935387    -4.619162
C      2.682166     -0.663375    -3.195145
C      1.563537     -0.680362    -5.732615
H     -0.289841     -1.130181    -4.743921
C      3.476417     -0.406517    -4.305270
H      3.126571     -0.667215    -2.203174
C      2.918856     -0.416073    -5.579228
H      1.118615     -0.687127    -6.722881
H      4.534702     -0.200693    -4.176438
H      3.538756     -0.217334    -6.447659
C     -0.967352      1.303401     0.549654
H     -0.172498      2.017423     0.292236
H     -1.885633      1.698296     0.104741
C     -0.639843     -0.064454    -0.096434
C      0.175608      0.152926    -1.379704
H     -1.577603     -0.541470    -0.399113
H      1.143542      0.596097    -1.108287
C     -0.562438      1.086746    -2.332391
O     -1.738315      1.005397    -2.555210
O      0.180048      2.025937    -2.960477
H      1.117867      1.900620    -2.768556
49
 -1042.13581534 -1041.76499100  6.32 5.90
C     -1.855918     -0.172177    -1.047361
C     -3.382954      0.119131    -1.029599
H     -1.537933     -1.005135    -0.412705
H     -3.894446     -0.138256    -1.964993
C     -4.115125     -0.490638     0.129091
C     -4.680185      0.240744     1.091022
H     -4.182194     -1.576289     0.158990
H     -5.216458     -0.245506     1.901362
C     -4.610121      1.710062     1.089497
C     -3.877057      2.364026     0.187650
H     -5.168583      2.253114     1.846666
H     -3.821582      3.449954     0.205416
C     -3.072640      1.629946    -0.838288
C     -1.603253      1.249526    -0.477121
H     -3.097452      2.163359    -1.793776
H     -1.488659      1.226671     0.610802
C     -1.252259     -0.289214    -2.438822
H     -1.727385      0.458047    -3.086657
H     -1.479127     -1.266250    -2.879339
C      0.278348     -0.051626    -2.445243
C      1.044681     -1.341266    -2.304920
H      0.522916      0.334284    -3.444216
H      0.791862     -2.124828    -3.017050
C      2.017223     -1.561544    -1.430013
C      2.443583     -0.537491    -0.408249
H      2.554683     -2.506768    -1.443956
H      3.261164      0.062184    -0.829434
C      2.940603     -1.166319     0.880806
C      2.194314     -2.159594     1.516545
C      4.120465     -0.731443     1.478593
C      2.622681     -2.710662     2.717462
H      1.275081     -2.514786     1.057622
C      4.553437     -1.281703     2.679427
H      4.702560      0.052157     1.002026
C      3.806385     -2.273819     3.302210
H      2.032575     -3.485544     3.197329
H      5.477233     -0.931966     3.129892
H      4.143490     -2.704823     4.239518
C     -0.447761      1.994319    -1.143255
H     -0.112300      2.835849    -0.530471
H     -0.779821      2.422171    -2.096794
C      0.719373      1.033553    -1.425679
C      1.264293      0.418057    -0.127208
H      1.544655      1.604219    -1.863746
H      0.476247     -0.166477     0.358851
C      1.751972      1.506649     0.821861
O      2.401399      2.451007     0.467020
O      1.442904      1.354756     2.129791
H      1.019082      0.500340     2.279446
49
 -1042.13565384 -1041.76462400  6.42 6.13
C     -1.933174      0.439462    -0.965145
C     -2.877585      1.610076    -1.369160
H     -2.546481     -0.464481    -0.897052
H     -2.299828      2.429063    -1.809084
C     -4.071321      1.288336    -2.211453
C     -5.202863      0.859268    -1.650275
H     -3.990052      1.377818    -3.292245
H     -6.059976      0.593676    -2.262435
C     -5.321615      0.726335    -0.190117
C     -4.372899      1.171794     0.636888
H     -6.218869      0.261890     0.209983
H     -4.489947      1.061203     1.712786
C     -3.127956      1.850163     0.144981
C     -1.813342      1.072077     0.444962
H     -3.118505      2.897271     0.470513
H     -1.850438      0.369618     1.282135
C     -0.667427      0.132747    -1.752471
H     -0.890274      0.114563    -2.826179
H     -0.333790     -0.880194    -1.500380
C      0.503028      1.104519    -1.496648
C      1.778758      0.526975    -2.055172
H      0.289371      2.049671    -2.013477
H      1.933211      0.591211    -3.130278
C      2.689583     -0.077513    -1.301751
C      2.592730     -0.230048     0.199659
H      3.586067     -0.485456    -1.763189
H      3.339229      0.456082     0.628915
C      2.958559     -1.627936     0.671262
C      3.681241     -1.808696     1.848304
C      2.539510     -2.751766    -0.038700
C      3.983357     -3.085468     2.306659
H      4.006316     -0.943317     2.420118
C      2.842378     -4.029146     0.415246
H      1.978272     -2.624656    -0.959875
C      3.565407     -4.200081     1.590354
H      4.547839     -3.208243     3.225842
H      2.511968     -4.894848    -0.150499
H      3.801352     -5.198284     1.945318
C     -0.611512      2.009768     0.571767
H     -0.476204      2.299619     1.619532
H     -0.813742      2.939325     0.024358
C      0.681173      1.424129    -0.005142
C      1.190742      0.168054     0.720933
H      1.462792      2.197464     0.057844
H      0.503738     -0.659254     0.536513
C      1.192546      0.336412     2.234454
O      0.553337     -0.338436     2.988451
O      1.979218      1.330333     2.726220
H      2.396068      1.818895     2.006730
49
 -1042.13558206 -1041.76451100  6.46 6.20
C     -1.934989      0.513819    -1.044160
C     -3.027006     -0.591896    -1.170527
H     -1.579448      0.798023    -2.038194
H     -3.719992     -0.530478    -0.325279
C     -3.784403     -0.694048    -2.456896
C     -3.341759     -1.454359    -3.459257
H     -4.691935     -0.105639    -2.571183
H     -3.883452     -1.500747    -4.399729
C     -2.107256     -2.242629    -3.326789
C     -1.452875     -2.333181    -2.167126
H     -1.736148     -2.764610    -4.204652
H     -0.538257     -2.918882    -2.101119
C     -1.925419     -1.656320    -0.914647
C     -0.978058     -0.528632    -0.412060
H     -2.169972     -2.409371    -0.155852
H      0.019209     -0.555604    -0.846679
C     -2.193193      1.744796    -0.183361
H     -2.988942      1.540841     0.544161
H     -2.536569      2.587112    -0.794066
C     -0.922473      2.131879     0.590527
C      0.220344      2.431596    -0.344558
H     -1.130235      3.051299     1.148640
H     -0.018687      3.042818    -1.214203
C      1.474691      2.030928    -0.173669
C      1.959783      1.225901     1.004570
H      2.230118      2.317806    -0.902450
H      2.817915      1.767431     1.421104
C      2.521449     -0.148174     0.641130
C      2.562946     -0.621556    -0.666418
C      3.082948     -0.940950     1.645693
C      3.116529     -1.864148    -0.960604
H      2.158323     -0.016074    -1.470114
C      3.634823     -2.180872     1.357531
H      3.100204     -0.577226     2.669222
C      3.648391     -2.652416     0.049332
H      3.129236     -2.213765    -1.988373
H      4.061991     -2.778722     2.156896
H      4.078584     -3.621829    -0.180612
C     -0.912594     -0.392301     1.104633
H     -0.202874     -1.120303     1.512075
H     -1.893319     -0.663232     1.515199
C     -0.568627      1.033060     1.614026
C      0.876435      1.168080     2.117297
H     -1.201950      1.212265     2.488965
H      1.096888      0.311201     2.762080
C      1.015184      2.375498     3.027906
O      0.191983      3.230374     3.225263
O      2.215055      2.387354     3.657186
H      2.227406      3.175881     4.219145
49
 -1042.13549234 -1041.76419200  6.52 6.40
C     -1.941473      0.512142    -0.980217
C     -2.969471     -0.644838    -1.166168
H     -1.659010      0.912120    -1.957690
H     -3.609012     -0.721184    -0.280880
C     -3.798939     -0.660871    -2.411372
C     -3.369125     -1.271010    -3.516725
H     -4.749915     -0.133196    -2.407377
H     -3.964250     -1.254266    -4.425355
C     -2.077836     -1.974446    -3.542556
C     -1.348765     -2.145689    -2.437782
H     -1.726651     -2.365540    -4.493636
H     -0.394445     -2.665749    -2.489053
C     -1.789384     -1.651612    -1.091549
C     -0.889289     -0.523645    -0.508805
H     -1.940545     -2.501710    -0.415384
H      0.084003     -0.433302    -0.987083
C     -2.225571      1.638601     0.007522
H     -2.982860      1.325277     0.737061
H     -2.628843      2.518535    -0.505455
C     -0.943088      2.004520     0.771770
C      0.163137      2.426821    -0.164003
H     -1.167259      2.865908     1.417689
H     -0.122635      3.079820    -0.987339
C      1.437411      2.081126    -0.031066
C      1.977208      1.227694     1.088534
H      2.167517      2.454850    -0.745820
H      2.798817      1.798675     1.538990
C      2.605633     -0.086058     0.624341
C      2.666962     -0.456130    -0.716121
C      3.201780     -0.931955     1.563807
C      3.275995     -1.645100    -1.105694
H      2.233767      0.190028    -1.471549
C      3.808336     -2.119626     1.181184
H      3.202997     -0.654706     2.614067
C      3.843735     -2.486015    -0.159786
H      3.303510     -1.911698    -2.157843
H      4.260793     -2.759024     1.933101
H      4.317009     -3.414030    -0.463866
C     -0.753968     -0.554843     1.010101
H      0.042773     -1.248681     1.296763
H     -1.680658     -0.967453     1.427843
C     -0.519573      0.829042     1.673157
C      0.919718      1.037147     2.193582
H     -1.165796      0.856664     2.555791
H      1.174371      0.169282     2.809586
C      0.938886      2.225483     3.140060
O      1.507540      3.271331     2.969765
O      0.216003      1.980570     4.258470
H      0.270465      2.776740     4.806989
49
 -1042.13220859 -1041.76161800  8.58 8.02
C     -1.749804      0.956584    -0.732405
C     -3.217680      1.387420    -0.452675
H     -1.620755     -0.103104    -0.972340
H     -3.647182      2.028337    -1.232184
C     -4.151961      0.249498    -0.165656
C     -4.721065      0.066378     1.026917
H     -4.364908     -0.437022    -0.982605
H     -5.405690     -0.762979     1.182267
C     -4.456849      0.968369     2.158218
C     -3.546988      1.939246     2.067761
H     -5.019065      0.821746     3.076083
H     -3.349773      2.590206     2.916307
C     -2.736680      2.131082     0.824649
C     -1.378822      1.370880     0.717508
H     -2.587713      3.197962     0.629319
H     -1.376498      0.510219     1.390369
C     -1.015781      1.834119    -1.735181
H     -1.318646      2.875951    -1.571295
H     -1.312165      1.585043    -2.759871
C      0.524447      1.739926    -1.597494
C      1.115021      0.703376    -2.516936
H      0.920035      2.705195    -1.942446
H      0.868114      0.809828    -3.571743
C      1.936708     -0.270783    -2.148501
C      2.346398     -0.509023    -0.715307
H      2.358625     -0.933846    -2.899953
H      3.307656      0.005636    -0.558561
C      2.561332     -1.980672    -0.406023
C      1.660996     -2.939215    -0.868666
C      3.635818     -2.394475     0.377247
C      1.836045     -4.282089    -0.562123
H      0.818353     -2.631202    -1.481121
C      3.813105     -3.737704     0.688501
H      4.341984     -1.660471     0.756006
C      2.913823     -4.686076     0.218454
H      1.127907     -5.016611    -0.933259
H      4.657144     -4.041879     1.299778
H      3.050254     -5.735731     0.458618
C     -0.073671      2.157259     0.828181
H      0.291555      2.161762     1.860356
H     -0.238110      3.206267     0.553908
C      0.981081      1.568225    -0.123847
C      1.278239      0.094388     0.218372
H      1.914986      2.137426    -0.011334
H      0.370225     -0.495458     0.094233
C      1.654606     -0.069777     1.685111
O      1.009779     -0.689079     2.481111
O      2.797490      0.548526     2.083887
H      3.198071      1.026342     1.348370
49
 -1042.13034241 -1041.75959000  9.75 9.29
C     -1.402985     -1.576306    -1.276504
C     -2.378906     -0.613799    -2.021307
H     -1.804346     -2.593392    -1.279308
H     -1.830223      0.143542    -2.587478
C     -3.413062     -1.240515    -2.904204
C     -4.641341     -1.513235    -2.464003
H     -3.125524     -1.495397    -3.922131
H     -5.369542     -1.985648    -3.117230
C     -5.046625     -1.190900    -1.087405
C     -4.236204     -0.537749    -0.253503
H     -6.037283     -1.494356    -0.760062
H     -4.559834     -0.319195     0.762203
C     -2.864385     -0.077004    -0.645903
C     -1.707696     -0.848177     0.060534
H     -2.802887      1.011370    -0.531522
H     -2.057818     -1.507943     0.859492
C      0.066372     -1.595519    -1.664035
H      0.194543     -2.048746    -2.654126
H      0.590362     -2.249671    -0.955332
C      0.745568     -0.204499    -1.656566
C      2.234220     -0.396737    -1.534695
H      0.572209      0.263235    -2.631067
H      2.678557     -1.079543    -2.258587
C      3.019101      0.169408    -0.627695
C      2.522099      1.151910     0.400020
H      4.080881     -0.064570    -0.608597
H      3.266331      1.959617     0.447801
C      2.447308      0.589505     1.816631
C      2.587292     -0.767699     2.089164
C      2.248236      1.462136     2.887299
C      2.517883     -1.242180     3.395073
H      2.748580     -1.462176     1.271503
C      2.177099      0.993880     4.192041
H      2.151233      2.529530     2.703096
C      2.309684     -0.365476     4.451045
H      2.626563     -2.305571     3.584595
H      2.020562      1.692662     5.007975
H      2.254985     -0.737897     5.468878
C     -0.529545     -0.015736     0.556667
H      0.187735     -0.681397     1.044448
H     -0.867133      0.692249     1.323431
C      0.154764      0.746758    -0.584726
C      1.180438      1.771002    -0.073971
H     -0.616280      1.343970    -1.079366
H      0.727225      2.307491     0.769781
C      1.465520      2.821439    -1.146862
O      1.177278      2.727495    -2.304720
O      2.097152      3.940255    -0.706590
H      2.241835      3.893585     0.245816
49
 -1042.12914017 -1041.75728500  10.51 10.74
C     -2.020349     -0.650717     0.562349
C     -2.203512     -2.105146     1.093051
H     -2.553592     -0.532630    -0.384701
H     -2.139936     -2.114318     2.185928
C     -3.399793     -2.878315     0.634518
C     -3.358459     -3.617469    -0.474805
H     -4.319288     -2.798427     1.209772
H     -4.239557     -4.153689    -0.815642
C     -2.127409     -3.722103    -1.272775
C     -0.973998     -3.194646    -0.857359
H     -2.174561     -4.253088    -2.219684
H     -0.080549     -3.282322    -1.472158
C     -0.838286     -2.471134     0.449759
C     -0.523401     -0.954875     0.298692
H     -0.142888     -3.011450     1.103254
H     -0.166232     -0.669402    -0.688855
C     -2.278551      0.534386     1.485313
H     -2.217703      0.222215     2.535062
H     -3.284700      0.940954     1.335874
C     -1.220584      1.625435     1.251172
C     -1.232527      2.101752    -0.181437
H     -1.485247      2.485680     1.882277
H     -2.212409      2.266515    -0.627626
C     -0.146940      2.348342    -0.913352
C      1.269691      2.195499    -0.411230
H     -0.265028      2.700765    -1.935911
H      1.793089      3.137426    -0.635843
C      2.075412      1.132269    -1.160161
C      1.549048      0.409005    -2.226020
C      3.411927      0.918064    -0.815451
C      2.323392     -0.523979    -2.909243
H      0.520513      0.566982    -2.531240
C      4.187137     -0.011763    -1.493304
H      3.860584      1.492856    -0.010729
C      3.643051     -0.743503    -2.543137
H      1.886280     -1.080658    -3.732371
H      5.222560     -0.161640    -1.203314
H      4.246097     -1.471967    -3.075366
C      0.374316     -0.389473     1.393457
H      1.424100     -0.586135     1.153695
H      0.166456     -0.934472     2.322349
C      0.171783      1.121066     1.685184
C      1.297376      2.018599     1.124108
H      0.226203      1.235045     2.773379
H      2.246546      1.573957     1.424228
C      1.274608      3.354779     1.869952
O      1.878496      3.530264     2.891178
O      0.518669      4.351261     1.356220
H      0.038168      4.050206     0.570945
