49
 -1042.14399780 -1041.77217200  0.00 0.00
C     -0.191975     -2.400201    -0.816539
C     -1.452437     -3.247642    -0.470439
H      0.583432     -3.089655    -1.164479
H     -2.350431     -2.622508    -0.493217
C     -1.672196     -4.518040    -1.229100
C     -1.087045     -5.652302    -0.841570
H     -2.291343     -4.493619    -2.122930
H     -1.220335     -6.568142    -1.410273
C     -0.239958     -5.695562     0.360206
C     -0.143931     -4.655341     1.191342
H      0.305986     -6.611736     0.568559
H      0.490273     -4.717918     2.073139
C     -0.897880     -3.376419     0.974683
C      0.005840     -2.139628     0.700164
H     -1.628948     -3.232990     1.779073
H      1.040071     -2.225909     1.046778
C     -0.285948     -1.209173    -1.758478
H     -0.799449     -1.504433    -2.682012
H      0.726781     -0.900598    -2.049525
C     -0.988190     -0.004163    -1.123114
C     -1.035195      1.173540    -2.059366
H     -2.032205     -0.291197    -0.916795
H     -1.260377      0.961014    -3.103278
C     -0.839187      2.430015    -1.681735
C     -0.535393      2.842345    -0.263928
H     -0.874959      3.229250    -2.418610
H     -1.201020      3.674711    -0.008231
C      0.892180      3.364579    -0.129383
C      1.957669      2.768160    -0.802154
C      1.153926      4.463066     0.687646
C      3.251022      3.252373    -0.654489
H      1.771103      1.927023    -1.461893
C      2.446255      4.949190     0.840677
H      0.334065      4.947636     1.210988
C      3.501224      4.342755     0.170580
H      4.067848      2.776168    -1.188256
H      2.627221      5.805958     1.482461
H      4.512559      4.719645     0.286031
C     -0.606697     -0.823329     1.193582
H     -0.215410     -0.598026     2.187387
H     -1.696018     -0.932742     1.294389
C     -0.334399      0.333913     0.226361
C     -0.867016      1.681248     0.719851
H      0.749571      0.423920     0.087399
H     -1.961146      1.624094     0.779477
C     -0.368947      2.050201     2.102258
O      0.620420      1.635214     2.644221
O     -1.177940      2.963581     2.691750
H     -0.781472      3.171671     3.550796
49
 -1042.14284939 -1041.77068300  0.72 0.93
C     -0.428139     -2.060374    -1.399031
C     -1.632919     -3.001296    -1.099233
H      0.260787     -2.604630    -2.052285
H     -2.506451     -2.416795    -0.794182
C     -2.007633     -4.011458    -2.137117
C     -1.393123     -5.194204    -2.188964
H     -2.767503     -3.751347    -2.870470
H     -1.641953     -5.915582    -2.962047
C     -0.357855     -5.553831    -1.207813
C     -0.098778     -4.788269    -0.145314
H      0.192856     -6.478052    -1.360724
H      0.672286     -5.081456     0.564059
C     -0.847277     -3.518849     0.136792
C      0.027790     -2.233760     0.074057
H     -1.429383     -3.625485     1.059799
H      1.103160     -2.388187     0.204706
C     -0.649831     -0.654562    -1.937922
H     -1.322271     -0.689859    -2.804077
H      0.305806     -0.254099    -2.301089
C     -1.199724      0.308886    -0.880002
C     -1.368041      1.702274    -1.424510
H     -2.201899     -0.044153    -0.587671
H     -1.768849      1.788646    -2.433227
C     -1.078029      2.804584    -0.745790
C     -0.534224      2.806333     0.659898
H     -1.213724      3.778231    -1.211222
H     -1.132516      3.508883     1.251762
C      0.904093      3.314514     0.701658
C      1.828609      2.976425    -0.285511
C      1.319567      4.133996     1.750271
C      3.136074      3.440784    -0.222373
H      1.518016      2.356192    -1.120177
C      2.627060      4.598914     1.817878
H      0.611178      4.409935     2.526678
C      3.541302      4.252100     0.831034
H      3.841947      3.168789    -1.001251
H      2.930194      5.236008     2.643116
H      4.563394      4.614272     0.879541
C     -0.463662     -1.123777     1.010456
H      0.077893     -1.188191     1.956996
H     -1.526143     -1.277433     1.245823
C     -0.317749      0.265462     0.378359
C     -0.722136      1.407153     1.315927
H      0.727795      0.410463     0.081447
H     -1.790417      1.309327     1.540366
C     -0.037096      1.424072     2.667432
O     -0.528244      1.888705     3.665276
O      1.210931      0.913264     2.658051
H      1.564828      1.037442     3.550624
49
 -1042.13603066 -1041.76441300  5.00 4.87
C     -0.702394     -1.727657     1.673826
C     -1.776991     -2.793061     1.303822
H     -0.585382     -1.741380     2.761783
H     -1.666090     -3.100101     0.259227
C     -1.915246     -3.986867     2.194690
C     -2.676221     -3.935154     3.288919
H     -1.357137     -4.888349     1.952387
H     -2.751694     -4.791048     3.953525
C     -3.428546     -2.718479     3.631716
C     -3.505695     -1.679975     2.796492
H     -3.939907     -2.686165     4.589999
H     -4.070903     -0.793927     3.077845
C     -2.848778     -1.678117     1.447617
C     -1.718724     -0.620044     1.288359
H     -3.611568     -1.647443     0.660674
H     -1.761058      0.222447     1.985181
C      0.665064     -1.733615     1.006596
H      1.102421     -2.738271     1.062469
H      1.339097     -1.068202     1.561854
C      0.614726     -1.256772    -0.448874
C      1.980498     -1.236431    -1.081451
H      0.009562     -1.979650    -1.020220
H      2.630056     -2.084482    -0.870404
C      2.415902     -0.269592    -1.878589
C      1.596122      0.942091    -2.246074
H      3.423116     -0.314239    -2.286484
H      1.688369      1.083884    -3.331506
C      2.144006      2.210162    -1.595936
C      2.685042      2.198045    -0.311516
C      2.105817      3.417700    -2.290558
C      3.169171      3.365389     0.265223
H      2.742587      1.264054     0.237745
C      2.585407      4.587784    -1.716303
H      1.687256      3.450279    -3.292978
C      3.118679      4.565548    -0.433759
H      3.589298      3.336628     1.265933
H      2.543965      5.517853    -2.274629
H      3.496146      5.477313     0.018293
C     -1.570205     -0.106735    -0.149064
H     -2.132939      0.822202    -0.257723
H     -2.006281     -0.831227    -0.851787
C     -0.101286      0.101063    -0.531733
C      0.092757      0.682207    -1.933992
H      0.351809      0.792702     0.188053
H     -0.255524     -0.071648    -2.656512
C     -0.699864      1.961463    -2.171710
O     -1.053792      2.725140    -1.322290
O     -0.972554      2.236296    -3.475232
H     -0.668095      1.518377    -4.042906
49
 -1042.13342878 -1041.76354900  6.63 5.41
C     -0.488547     -2.607898    -1.419710
C     -1.937531     -2.964815    -0.973958
H     -0.099854     -3.462729    -1.981969
H     -2.503075     -2.054415    -0.752293
C     -2.731645     -3.885590    -1.845393
C     -2.608697     -5.208589    -1.727407
H     -3.386232     -3.456986    -2.600775
H     -3.159868     -5.877865    -2.381796
C     -1.720162     -5.799489    -0.714994
C     -1.124540     -5.055186     0.219641
H     -1.565757     -6.874952    -0.734940
H     -0.474362     -5.521729     0.956704
C     -1.325495     -3.571612     0.318681
C     -0.040939     -2.731836     0.059408
H     -1.845818     -3.326467     1.252211
H      0.907191     -3.256662     0.209971
C     -0.188369     -1.320523    -2.171390
H     -0.854721     -1.232739    -3.038474
H      0.833970     -1.377238    -2.568368
C     -0.286515     -0.060904    -1.306214
C      0.186733      1.166487    -2.043606
H     -1.340246      0.090525    -1.022006
H      0.317313      1.114539    -3.121913
C      0.431128      2.286828    -1.377392
C      0.152415      2.335228     0.105920
H      0.756510      3.190585    -1.882564
H     -0.940368      2.314384     0.214078
C      0.623817      3.602261     0.796260
C     -0.156598      4.180240     1.795719
C      1.841526      4.200214     0.472911
C      0.261716      5.329874     2.454507
H     -1.107877      3.725950     2.061323
C      2.262613      5.350342     1.127333
H      2.473065      3.754684    -0.288705
C      1.474232      5.920370     2.120438
H     -0.361778      5.765143     3.229615
H      3.213439      5.802540     0.861483
H      1.804742      6.819139     2.631400
C     -0.039772     -1.396517     0.809245
H      0.515490     -1.500975     1.748463
H     -1.067776     -1.126203     1.088429
C      0.538859     -0.247507    -0.020771
C      0.658138      1.042468     0.831527
H      1.549064     -0.517681    -0.349576
H      0.059492      0.940782     1.741036
C      2.096684      1.225926     1.276039
O      3.063481      1.162129     0.561623
O      2.197046      1.489328     2.597355
H      3.137874      1.627140     2.782891
49
 -1042.13482842 -1041.76353900  5.75 5.42
C     -0.629990     -1.500129    -1.726179
C     -1.330796     -2.809206    -2.189836
H      0.455486     -1.477926    -1.863983
H     -1.930521     -2.698229    -3.101399
C     -0.412749     -3.987395    -2.329746
C     -0.505720     -5.069749    -1.554793
H      0.343916     -3.939831    -3.110312
H      0.167919     -5.908598    -1.707633
C     -1.513335     -5.175519    -0.488371
C     -2.287512     -4.137796    -0.167944
H     -1.609535     -6.121135     0.037647
H     -3.020104     -4.222392     0.631166
C     -2.134375     -2.819863    -0.858460
C     -1.105878     -1.803661    -0.280520
H     -3.107714     -2.334725    -0.983160
H     -0.325331     -2.349453     0.257921
C     -1.274630     -0.228812    -2.271134
H     -2.347689     -0.416089    -2.397792
H     -0.887082     -0.008810    -3.271736
C     -1.100315      0.995758    -1.338090
C     -0.185512      2.073253    -1.858894
H     -2.095257      1.457673    -1.243946
H     -0.083551      2.184486    -2.936451
C      0.447548      2.918137    -1.053653
C      0.374730      2.880920     0.454832
H      1.084887      3.692135    -1.475448
H      0.049869      3.870646     0.796336
C      1.757280      2.645237     1.057951
C      2.656619      1.739373     0.498100
C      2.143833      3.344278     2.200353
C      3.905570      1.532666     1.069832
H      2.385952      1.202944    -0.405390
C      3.390870      3.139451     2.777051
H      1.458613      4.060400     2.645738
C      4.276758      2.229522     2.213689
H      4.593061      0.824449     0.617513
H      3.670810      3.694878     3.666929
H      5.252719      2.066812     2.659984
C     -1.552928     -0.587100     0.532492
H     -1.449765     -0.784352     1.600666
H     -2.608254     -0.352189     0.338909
C     -0.679180      0.590700     0.085366
C     -0.698492      1.854728     0.946161
H      0.354939      0.227940     0.064511
H     -1.675364      2.342321     0.848009
C     -0.492849      1.583469     2.421492
O      0.043404      0.623658     2.907182
O     -0.982698      2.592301     3.181897
H     -0.787657      2.364825     4.103137
49
 -1042.13211887 -1041.76271100  7.45 5.94
C     -1.593514     -0.952844    -2.336284
C     -2.841668     -1.615056    -1.681271
H     -1.642516     -1.155722    -3.410719
H     -3.055901     -1.150108    -0.713929
C     -4.085946     -1.730509    -2.503660
C     -4.256345     -2.756472    -3.338976
H     -4.834801     -0.944962    -2.433679
H     -5.144325     -2.824338    -3.960931
C     -3.246557     -3.820473    -3.447823
C     -2.203866     -3.889339    -2.616935
H     -3.375418     -4.570655    -4.223381
H     -1.474636     -4.689977    -2.721056
C     -1.990733     -2.903084    -1.506435
C     -0.709933     -2.032113    -1.659445
H     -2.082406     -3.406354    -0.536608
H      0.075323     -2.450126    -2.296387
C     -1.265531      0.514267    -2.106994
H     -2.146026      1.130599    -2.326656
H     -0.488760      0.814886    -2.822793
C     -0.749048      0.823356    -0.698268
C     -0.266051      2.247527    -0.580658
H     -1.570211      0.674384     0.020932
H     -0.544841      2.960208    -1.353314
C      0.477824      2.618876     0.452500
C      0.764386      1.628561     1.554788
H      0.814489      3.644292     0.566921
H     -0.182066      1.507990     2.099505
C      1.781178      2.085377     2.586717
C      1.648195      1.670904     3.911284
C      2.867637      2.891002     2.249642
C      2.569302      2.054878     4.877474
H      0.809060      1.039144     4.191432
C      3.789655      3.281026     3.212662
H      2.999387      3.208284     1.220984
C      3.644492      2.864260     4.530623
H      2.445762      1.721488     5.903412
H      4.628317      3.910526     2.930320
H      4.366322      3.167570     5.282372
C     -0.130392     -1.586392    -0.314098
H      0.668739     -2.270328    -0.007038
H     -0.904654     -1.649713     0.462793
C      0.389441     -0.146518    -0.336665
C      1.090502      0.202236     1.003771
H      1.127525     -0.051621    -1.142467
H      0.777278     -0.512063     1.769187
C      2.580560     -0.031137     0.870461
O      3.213347     -0.847605     1.488168
O      3.157276      0.773183    -0.051132
H      4.100153      0.552681    -0.058344
49
 -1042.13050391 -1041.75981900  8.47 7.75
C     -0.785536     -2.408618     1.552765
C     -2.277523     -2.501224     1.115719
H     -0.619102     -3.176774     2.314397
H     -2.414322     -2.049447     0.128309
C     -2.945741     -3.837894     1.185315
C     -3.489211     -4.268560     2.324792
H     -2.951021     -4.467297     0.298406
H     -3.945833     -5.252339     2.384939
C     -3.480667     -3.429398     3.532846
C     -3.073332     -2.158395     3.504344
H     -3.831292     -3.868247     4.463075
H     -3.080705     -1.562095     4.414297
C     -2.610070     -1.487461     2.244696
C     -1.112460     -1.064816     2.257161
H     -3.304232     -0.683569     1.972407
H     -0.663495     -0.947967     3.248080
C      0.336383     -2.450042     0.524962
H      0.205318     -3.318616    -0.132092
H      1.290731     -2.595265     1.048429
C      0.439219     -1.171916    -0.308964
C      1.635124     -1.156317    -1.228190
H     -0.470136     -1.085693    -0.924197
H      2.241054     -2.052479    -1.332975
C      1.941544     -0.029707    -1.857367
C      1.037249      1.165737    -1.640613
H      2.816513      0.065151    -2.489429
H      0.043780      0.881238    -2.019180
C      1.431752      2.405126    -2.430255
C      1.374483      3.696715    -1.910919
C      1.808233      2.255491    -3.766704
C      1.707258      4.799469    -2.691521
H      1.069852      3.870940    -0.884527
C      2.139215      3.351782    -4.549936
H      1.833522      1.262054    -4.205040
C      2.095140      4.634019    -4.012964
H      1.659526      5.793800    -2.257506
H      2.430485      3.204347    -5.585602
H      2.355246      5.494047    -4.621701
C     -0.828513      0.170389     1.396102
H     -0.819306      1.066368     2.025662
H     -1.636201      0.311162     0.664343
C      0.488915      0.052836     0.627817
C      0.849674      1.374949    -0.126968
H      1.290917     -0.149712     1.351073
H      0.045898      2.096697     0.042309
C      2.097870      1.941196     0.513274
O      3.221280      1.851180     0.099848
O      1.806579      2.561282     1.684035
H      2.645934      2.867873     2.057244
49
 -1042.12931961 -1041.75863900  9.21 8.49
C      2.317807      1.471405    -1.179711
C      1.563702      2.583790    -1.966646
H      3.383369      1.575902    -1.406856
H      0.587911      2.778194    -1.510750
C      2.288735      3.863973    -2.237694
C      3.097098      3.977691    -3.292637
H      2.171356      4.690131    -1.540232
H      3.649467      4.895588    -3.472332
C      3.269631      2.864239    -4.238216
C      2.519122      1.762106    -4.172635
H      4.024499      2.963769    -5.013538
H      2.668799      0.956282    -4.888097
C      1.439547      1.580868    -3.146439
C      1.699272      0.422182    -2.140241
H      0.459824      1.542282    -3.637223
H      2.392155     -0.353408    -2.479974
C      2.127275      1.300423     0.319917
H      2.284164      2.260805     0.826157
H      2.902015      0.619143     0.696416
C      0.763111      0.722166     0.704151
C      0.670212      0.389019     2.172280
H     -0.014715      1.462752     0.460234
H      1.468483      0.701318     2.840781
C     -0.358936     -0.323940     2.608662
C     -1.435384     -0.704882     1.614482
H     -0.443817     -0.640116     3.641516
H     -1.879044      0.241388     1.268614
C     -2.595137     -1.495699     2.205276
C     -3.256345     -2.509392     1.512459
C     -3.078126     -1.147010     3.468937
C     -4.342393     -3.172160     2.076297
H     -2.942918     -2.799873     0.516255
C     -4.161390     -1.804913     4.033728
H     -2.606512     -0.337439     4.017457
C     -4.797749     -2.828726     3.340532
H     -4.834682     -3.960980     1.515304
H     -4.512268     -1.514039     5.019347
H     -5.644215     -3.346655     3.780065
C      0.408176     -0.208900    -1.610536
H      0.167523     -1.107755    -2.187767
H     -0.431359      0.486012    -1.751452
C      0.486167     -0.549703    -0.121328
C     -0.791326     -1.317466     0.349950
H      1.353275     -1.205707     0.038723
H     -1.524227     -1.292685    -0.459817
C     -0.407769     -2.774815     0.481520
O     -0.459754     -3.571903    -0.421740
O      0.056645     -3.103291     1.702413
H      0.298727     -4.039975     1.664388
49
 -1042.12659212 -1041.75660300  10.92 9.77
C     -1.081845      1.381354    -2.445104
C     -0.167052      2.638740    -2.533514
H     -1.861730      1.490823    -3.205172
H      0.811749      2.429812    -2.090643
C     -0.017587      3.304062    -3.865016
C     -0.912647      4.201118    -4.281522
H      0.815818      3.018323    -4.502638
H     -0.823387      4.660491    -5.261803
C     -2.048398      4.589178    -3.431134
C     -2.148680      4.185023    -2.162724
H     -2.811261      5.233822    -3.859308
H     -2.999824      4.490700    -1.557943
C     -1.111066      3.322645    -1.506373
C     -1.619626      1.911354    -1.091176
H     -0.615935      3.880097    -0.702384
H     -2.701465      1.817184    -0.958075
C     -0.502289     -0.023104    -2.504260
H      0.143320     -0.121934    -3.385709
H     -1.326418     -0.736102    -2.639690
C      0.266936     -0.429705    -1.244211
C      0.667229     -1.883275    -1.276030
H      1.181829      0.180750    -1.176784
H      0.606335     -2.425072    -2.216872
C      1.088732     -2.480366    -0.169647
C      1.241922     -1.664686     1.091629
H      1.401057     -3.519600    -0.165632
H      2.104064     -1.003974     0.926561
C      1.556343     -2.474184     2.336491
C      2.419014     -1.954798     3.301127
C      0.965833     -3.715501     2.569092
C      2.693354     -2.659316     4.468101
H      2.891203     -0.989376     3.134235
C      1.240971     -4.424052     3.730665
H      0.269637     -4.123237     1.843526
C      2.106478     -3.899546     4.684266
H      3.369510     -2.239217     5.206467
H      0.772754     -5.389795     3.894777
H      2.319172     -4.454741     5.592217
C     -0.878329      1.343732     0.122726
H     -1.455086      1.545022     1.033076
H      0.083156      1.861841     0.246083
C     -0.594483     -0.155751     0.001353
C      0.019414     -0.707850     1.311392
H     -1.538754     -0.685946    -0.159908
H      0.393425      0.135693     1.905225
C     -1.061578     -1.410594     2.134963
O     -1.914983     -2.110274     1.668385
O     -1.016815     -1.212786     3.473432
H     -0.220021     -0.726979     3.717482
