49
 -1042.14369275 -1041.77361600  0.00 0.00
C     -1.881869     -1.285704    -1.613065
C     -2.294243     -2.621074    -0.924578
H     -2.417631     -1.174278    -2.560327
H     -2.205555     -2.523538     0.162044
C     -3.616367     -3.221472    -1.285975
C     -3.731180     -4.074774    -2.304282
H     -4.493447     -2.919947    -0.717970
H     -4.699748     -4.484281    -2.576653
C     -2.557257     -4.479748    -3.092556
C     -1.320358     -4.116729    -2.748001
H     -2.719098     -5.098306    -3.971195
H     -0.471249     -4.428153    -3.352824
C     -1.028074     -3.285606    -1.533660
C     -0.465549     -1.871521    -1.854019
H     -0.416619     -3.861292    -0.828467
H     -0.073549     -1.749606    -2.868691
C     -1.893760      0.023367    -0.828686
H     -1.824254     -0.166113     0.249659
H     -2.828138      0.571649    -0.989191
C     -0.692795      0.872781    -1.277952
C     -0.794810      2.306681    -0.832118
H     -0.727343      0.888525    -2.376934
H     -1.665149      2.857077    -1.185581
C      0.104819      2.935941    -0.086281
C      1.346130      2.267647     0.447501
H     -0.030096      3.987850     0.153322
H      2.175734      2.467900    -0.242682
C      1.743912      2.791947     1.816053
C      3.079121      3.056402     2.112576
C      0.786048      2.986130     2.811459
C      3.450914      3.508266     3.373313
H      3.836286      2.897457     1.350233
C      1.153802      3.437908     4.071936
H     -0.259374      2.785562     2.594108
C      2.489172      3.701271     4.357136
H      4.496289      3.710218     3.586180
H      0.395541      3.584621     4.835192
H      2.777648      4.054335     5.342159
C      0.516685     -1.333507    -0.823151
H      1.502591     -1.791673    -0.955648
H      0.169431     -1.631196     0.175423
C      0.641664      0.205287    -0.869633
C      1.135678      0.742477     0.485269
H      1.397965      0.476524    -1.615166
H      0.400492      0.506472     1.261571
C      2.443010      0.069467     0.846196
O      3.465194      0.178703     0.216968
O      2.360132     -0.686671     1.960135
H      3.239258     -1.067276     2.106853
49
 -1042.14202396 -1041.77181100  1.05 1.13
C     -1.759141     -2.107299    -0.539957
C     -3.093429     -1.876032     0.230344
H     -1.809733     -3.046178    -1.099183
H     -3.273188     -0.803099     0.350980
C     -4.326536     -2.555728    -0.276133
C     -4.661544     -3.777242     0.140948
H     -4.930171     -2.042940    -1.021452
H     -5.543588     -4.274020    -0.253034
C     -3.846672     -4.490582     1.136216
C     -2.820286     -3.903758     1.754801
H     -4.106888     -5.519769     1.368342
H     -2.232900     -4.457823     2.484038
C     -2.425996     -2.479223     1.497740
C     -1.037098     -2.319015     0.816861
H     -2.545059     -1.889884     2.414807
H     -0.390740     -3.200754     0.872468
C     -1.163176     -0.996735    -1.400309
H     -1.536535     -0.014825    -1.084695
H     -1.447790     -1.115302    -2.451219
C      0.367608     -1.033015    -1.256031
C      1.067858     -0.215535    -2.308520
H      0.664268     -2.077814    -1.428515
H      0.879438     -0.503362    -3.341431
C      1.904394      0.784848    -2.062770
C      2.238937      1.255399    -0.668560
H      2.397327      1.295450    -2.886441
H      3.160285      0.752175    -0.350304
C      2.483329      2.752417    -0.607579
C      1.598101      3.643458    -1.213764
C      3.581160      3.264975     0.078917
C      1.807017      5.013970    -1.136757
H      0.738911      3.258436    -1.755991
C      3.794098      4.636503     0.159048
H      4.276233      2.582182     0.559530
C      2.907127      5.515581    -0.449066
H      1.108432      5.693945    -1.614884
H      4.656327      5.017582     0.697762
H      3.070536      6.586925    -0.388295
C     -0.278604     -1.062031     1.218359
H      0.177963     -1.187741     2.206081
H     -0.995712     -0.236636     1.317504
C      0.797950     -0.663979     0.184831
C      1.109584      0.839917     0.291607
H      1.722432     -1.209788     0.405983
H      0.209500      1.408969     0.039362
C      1.435699      1.220580     1.719569
O      0.765183      1.923362     2.428596
O      2.591809      0.661521     2.152210
H      2.713283      0.951913     3.067988
49
 -1042.14345948 -1041.77168400  0.15 1.21
C     -1.553388     -1.307323    -2.002712
C     -1.996654     -2.359667    -0.944957
H     -1.980609     -1.428648    -3.002883
H     -2.708516     -1.978047    -0.203383
C     -2.505562     -3.647016    -1.522921
C     -1.881180     -4.813086    -1.342935
H     -3.429685     -3.607030    -2.096188
H     -2.299700     -5.724531    -1.761343
C     -0.632139     -4.914224    -0.572234
C      0.001559     -3.820332    -0.146314
H     -0.235453     -5.903243    -0.360983
H      0.929035     -3.901509     0.415456
C     -0.518926     -2.456735    -0.472131
C     -0.106679     -1.833930    -1.840583
H     -0.315724     -1.764786     0.347832
H      0.045185     -2.667198    -2.534238
C     -1.724323      0.131881    -1.515215
H     -1.761511      0.154055    -0.419833
H     -2.689618      0.527950    -1.850649
C     -0.599037      1.069800    -1.986023
C     -0.861176      2.475099    -1.508776
H     -0.598196      1.070218    -3.085283
H     -1.650360      3.032632    -2.009644
C     -0.202321      3.041799    -0.504967
C      0.913545      2.371877     0.259019
H     -0.444570      4.058760    -0.205394
H      1.863339      2.778058    -0.111730
C      0.844058      2.653316     1.749954
C      2.001420      2.945446     2.468480
C     -0.370250      2.590113     2.433663
C      1.948847      3.170905     3.838980
H      2.954545      2.988763     1.949302
C     -0.426490      2.815442     3.802777
H     -1.281539      2.368064     1.885172
C      0.734364      3.106902     4.510670
H      2.860845      3.398321     4.382537
H     -1.380001      2.763285     4.319573
H      0.691332      3.282907     5.580870
C      1.050557     -0.853849    -1.988961
H      1.291470     -0.794078    -3.057411
H      1.948277     -1.259944    -1.508930
C      0.783386      0.587122    -1.519596
C      0.939438      0.850446    -0.009159
H      1.538020      1.221493    -2.002467
H      0.134842      0.376392     0.555058
C      2.254557      0.289735     0.486885
O      3.342676      0.705776     0.179556
O      2.096957     -0.754660     1.328291
H      2.985355     -1.036718     1.593772
49
 -1042.14213163 -1041.77014800  0.98 2.18
C     -1.327935     -2.084453    -1.456577
C     -2.573330     -1.886579    -0.542437
H     -1.427351     -2.844745    -2.237337
H     -3.139378     -0.969957    -0.746653
C     -3.505814     -3.060806    -0.497049
C     -3.718872     -3.767579     0.615467
H     -4.029770     -3.320135    -1.414964
H     -4.421908     -4.596262     0.606471
C     -3.036777     -3.452314     1.880450
C     -2.067082     -2.537284     1.926225
H     -3.339975     -3.986424     2.776531
H     -1.556957     -2.309602     2.859049
C     -1.621334     -1.832681     0.685122
C     -0.548535     -2.538148    -0.198369
H     -1.324277     -0.809355     0.920041
H     -0.686712     -3.616209    -0.066989
C     -0.810353     -0.769866    -2.046101
H     -1.182950      0.075059    -1.456070
H     -1.218397     -0.626706    -3.053168
C      0.725854     -0.683763    -2.107906
C      1.148202      0.635923    -2.702910
H      1.084433     -1.491268    -2.761843
H      1.010388      0.766782    -3.774536
C      1.647573      1.636849    -1.987150
C      1.888795      1.574573    -0.496122
H      1.928968      2.565057    -2.478994
H      2.962176      1.407692    -0.344048
C      1.522167      2.872648     0.201455
C      0.319735      3.520558    -0.080729
C      2.368548      3.423609     1.160533
C     -0.027654      4.691091     0.580716
H     -0.347957      3.105860    -0.830919
C      2.024403      4.594859     1.825635
H      3.307764      2.928571     1.391261
C      0.824342      5.232300     1.537563
H     -0.967293      5.183229     0.348795
H      2.697518      5.009955     2.569581
H      0.552675      6.146926     2.055080
C      0.935965     -2.216773    -0.103575
H      1.477984     -3.004559    -0.641686
H      1.266539     -2.290016     0.938605
C      1.371768     -0.880617    -0.727166
C      1.131421      0.381131     0.124843
H      2.457752     -0.938695    -0.876571
H      0.069439      0.625440     0.156125
C      1.525229      0.160089     1.567687
O      0.760613      0.096892     2.495433
O      2.860453      0.012113     1.730657
H      3.009907     -0.132413     2.676545
49
 -1042.13978096 -1041.76855100  2.45 3.18
C     -1.133600     -2.178337    -0.744056
C     -2.625693     -2.295812    -0.324046
H     -0.639933     -3.131321    -0.959844
H     -3.327757     -1.898792    -1.067116
C     -3.049437     -3.676525     0.080865
C     -3.403113     -3.986444     1.329185
H     -3.069300     -4.438075    -0.696195
H     -3.720805     -4.997128     1.570691
C     -3.386921     -2.988096     2.409292
C     -2.908635     -1.760098     2.205644
H     -3.771608     -3.276860     3.383349
H     -2.888643     -1.035641     3.016506
C     -2.341544     -1.355994     0.881518
C     -0.814892     -1.566354     0.646493
H     -2.617016     -0.322122     0.650449
H     -0.429529     -2.327987     1.331067
C     -0.852467     -1.161869    -1.840166
H     -1.468827     -0.270237    -1.664681
H     -1.144095     -1.551130    -2.822191
C      0.636725     -0.747055    -1.865805
C      0.787347      0.522317    -2.662192
H      1.194993     -1.526550    -2.395227
H      0.331466      0.514614    -3.652135
C      1.398472      1.626571    -2.251099
C      2.092332      1.749694    -0.920689
H      1.422984      2.500713    -2.898072
H      3.056729      2.240410    -1.095944
C      1.364077      2.638618     0.081264
C      0.061707      3.086407    -0.116283
C      2.035631      3.040313     1.237120
C     -0.559671      3.903614     0.822879
H     -0.474082      2.791809    -1.012623
C      1.419614      3.854643     2.177285
H      3.060311      2.715064     1.398159
C      0.114328      4.288659     1.973697
H     -1.577647      4.239394     0.650723
H      1.961632      4.155206     3.068751
H     -0.372035      4.925818     2.705358
C      0.117016     -0.359274     0.592486
H      0.550441     -0.150336     1.576337
H     -0.439371      0.536032     0.302856
C      1.222610     -0.643536    -0.433895
C      2.396576      0.339778    -0.350239
H      1.634020     -1.628017    -0.183573
H      2.687369      0.452484     0.700193
C      3.620961     -0.229180    -1.045841
O      3.662843     -1.213610    -1.735940
O      4.727837      0.507033    -0.788680
H      5.458597      0.087188    -1.265635
49
 -1042.13913498 -1041.76804300  2.86 3.50
C     -0.867443     -2.143937    -1.069980
C     -2.334452     -2.508078    -0.706967
H     -0.243235     -2.990039    -1.374803
H     -3.074718     -2.140036    -1.427604
C     -2.564718     -3.967867    -0.449321
C     -2.895859     -4.445489     0.751494
H     -2.460852     -4.644285    -1.295371
H     -3.071664     -5.509426     0.885179
C     -3.043760     -3.566048     1.921205
C     -2.737365     -2.270007     1.852060
H     -3.406195     -3.999587     2.849017
H     -2.837340     -1.632871     2.727672
C     -2.201987     -1.665045     0.592858
C     -0.657085     -1.652567     0.387604
H     -2.606044     -0.657397     0.452997
H     -0.192665     -2.433015     0.997927
C     -0.724564     -0.981683    -2.041658
H     -1.472093     -0.218577    -1.788586
H     -0.941492     -1.297465    -3.068185
C      0.679262     -0.332794    -1.975557
C      0.608584      1.069224    -2.529165
H      1.349362     -0.911236    -2.626726
H      0.097259      1.176265    -3.485238
C      1.097806      2.151694    -1.940402
C      1.863358      2.130536    -0.644365
H      0.972426      3.122426    -2.414647
H      2.767522      2.730656    -0.801606
C      1.122692      2.778183     0.520332
C     -0.220773      3.136523     0.451443
C      1.817433      3.048019     1.701067
C     -0.856444      3.734566     1.534830
H     -0.778024      2.945660    -0.459735
C      1.187753      3.643715     2.784997
H      2.872263      2.794714     1.770543
C     -0.157183      3.988181     2.706650
H     -1.905743      4.002884     1.458728
H      1.750228      3.844225     3.691832
H     -0.654375      4.454591     3.551104
C      0.120017     -0.343219     0.495510
H      0.522492     -0.202038     1.503956
H     -0.536232      0.509011     0.300435
C      1.252286     -0.379736    -0.539002
C      2.332659      0.699597    -0.323585
H      1.749482     -1.346673    -0.409580
H      2.651070      0.641364     0.723329
C      3.569288      0.366943    -1.141031
O      4.054253      1.038379    -2.012668
O      4.113332     -0.814496    -0.763925
H      4.891476     -0.953741    -1.323063
49
 -1042.13988863 -1041.76790900  2.39 3.58
C     -0.692632     -2.497196    -0.161320
C     -2.061971     -1.770860    -0.006546
H     -0.855962     -3.547952     0.099290
H     -2.062128     -0.840250    -0.580829
C     -3.307056     -2.560840    -0.257998
C     -3.840161     -3.314566     0.705028
H     -3.752022     -2.537710    -1.250136
H     -4.725116     -3.915031     0.514419
C     -3.243370     -3.360476     2.048604
C     -2.250663     -2.542472     2.406363
H     -3.642660     -4.076986     2.761462
H     -1.831735     -2.598475     3.408894
C     -1.681703     -1.510587     1.477541
C     -0.191242     -1.741904     1.093870
H     -1.899829     -0.504878     1.856406
H      0.398888     -2.339797     1.795518
C      0.131586     -2.421145    -1.437883
H     -0.496231     -2.664313    -2.304123
H      0.897333     -3.205112    -1.387280
C      0.854264     -1.085559    -1.674248
C     -0.016517     -0.004851    -2.267360
H      1.635913     -1.287833    -2.420599
H     -0.821903     -0.318755    -2.928907
C      0.191983      1.290700    -2.068650
C      1.307745      1.858118    -1.228610
H     -0.449778      2.018679    -2.560388
H      1.911147      2.477347    -1.903843
C      0.826387      2.800762    -0.129635
C      1.759052      3.620463     0.510174
C     -0.508029      2.902050     0.254271
C      1.375469      4.500762     1.511699
H      2.803971      3.571630     0.213851
C     -0.898389      3.784153     1.257007
H     -1.256515      2.287302    -0.234312
C      0.040476      4.584571     1.892247
H      2.120119      5.127467     1.993067
H     -1.944773      3.843017     1.540504
H     -0.265069      5.271871     2.674596
C      0.520892     -0.433610     0.748111
H      1.018651     -0.032211     1.637769
H     -0.222995      0.310020     0.456678
C      1.533061     -0.581283    -0.391060
C      2.249036      0.759214    -0.676494
H      2.292002     -1.312373    -0.086999
H      2.701620      1.103648     0.258669
C      3.397706      0.511398    -1.633935
O      3.449421      0.835056    -2.791517
O      4.408275     -0.157109    -1.031437
H      5.093456     -0.294094    -1.701932
49
 -1042.13931442 -1041.76701800  2.75 4.14
C     -1.290377     -0.888408    -2.164238
C     -2.205349     -1.362403    -0.995780
H     -1.564946     -1.477778    -3.045153
H     -2.245753     -0.598281    -0.214613
C     -3.574153     -1.861180    -1.334580
C     -3.762800     -3.126879    -1.711543
H     -4.409485     -1.165459    -1.301716
H     -4.750871     -3.481969    -1.990243
C     -2.640074     -4.075522    -1.767947
C     -1.429360     -3.761859    -1.300691
H     -2.822188     -5.058940    -2.193054
H     -0.619218     -4.486101    -1.354226
C     -1.126591     -2.433264    -0.672797
C     -0.094877     -1.571248    -1.456683
H     -0.890034     -2.566776     0.389646
H      0.587758     -2.118375    -2.114487
C     -1.162117      0.574545    -2.560110
H     -2.157690      1.014173    -2.699442
H     -0.673530      0.611839    -3.541705
C     -0.335776      1.447367    -1.602720
C     -1.094528      1.920785    -0.389434
H     -0.059825      2.346127    -2.166662
H     -2.166679      2.077442    -0.496317
C     -0.513140      2.207195     0.769359
C      0.966633      2.099514     1.035314
H     -1.114230      2.582477     1.594903
H      1.308229      3.112361     1.280058
C      1.306832      1.267054     2.267805
C      2.581753      1.393579     2.823982
C      0.404069      0.398387     2.872971
C      2.948720      0.662768     3.944825
H      3.291797      2.078770     2.367732
C      0.767422     -0.335043     3.998515
H     -0.596034      0.291116     2.466547
C      2.040221     -0.208337     4.536995
H      3.945027      0.777119     4.361125
H      0.048146     -1.008686     4.454002
H      2.322624     -0.781311     5.414424
C      0.670820     -0.616592    -0.539490
H      1.607279     -1.084573    -0.215899
H      0.087265     -0.450929     0.368942
C      0.963850      0.744183    -1.181570
C      1.771124      1.626649    -0.218781
H      1.572315      0.589468    -2.080644
H      2.627856      1.047697     0.145249
C      2.398011      2.808859    -0.934683
O      2.237938      3.129447    -2.083017
O      3.238142      3.492498    -0.119636
H      3.605796      4.218495    -0.644538
49
 -1042.13558206 -1041.76442900  5.09 5.76
C     -0.301413      1.162996     2.652742
C      0.596729      1.674015     1.485174
H     -0.132129      1.775732     3.542984
H      0.080286      1.567582     0.528516
C      1.147009      3.061392     1.600940
C      2.338031      3.298635     2.150953
H      0.531794      3.885568     1.246034
H      2.710332      4.314761     2.246026
C      3.177282      2.198912     2.649623
C      2.831023      0.921655     2.480941
H      4.102899      2.450698     3.160089
H      3.468609      0.128482     2.866594
C      1.579078      0.501839     1.768589
C      0.520699     -0.148530     2.710836
H      1.853902     -0.110313     0.904826
H      0.928837     -0.371821     3.701001
C     -1.791974      0.970675     2.440953
H     -2.282888      1.941638     2.306350
H     -2.199063      0.552716     3.369900
C     -2.187837      0.039236     1.269138
C     -2.504439      0.809141     0.011770
H     -3.149543     -0.398022     1.570969
H     -3.065652      1.732064     0.145055
C     -2.227769      0.396940    -1.218330
C     -1.470857     -0.879292    -1.483641
H     -2.561561      0.975606    -2.075363
H     -2.178977     -1.717918    -1.499210
C     -0.739961     -0.859826    -2.813702
C      0.018819      0.248147    -3.191605
C     -0.786276     -1.959708    -3.666818
C      0.709734      0.258961    -4.395725
H      0.065786      1.114139    -2.536724
C     -0.095967     -1.953012    -4.873265
H     -1.361225     -2.834761    -3.378069
C      0.653574     -0.843214    -5.242277
H      1.294869      1.130037    -4.674823
H     -0.144498     -2.819184    -5.526141
H      1.193080     -0.836264    -6.184075
C     -0.261041     -1.372086     2.227635
H     -0.865066     -1.723597     3.073367
H      0.432640     -2.190610     2.001374
C     -1.218716     -1.161275     1.038434
C     -0.487643     -1.116074    -0.318863
H     -1.837432     -2.063959     0.980106
H      0.255975     -0.322271    -0.348941
C      0.220230     -2.435785    -0.546069
O     -0.324327     -3.509390    -0.592960
O      1.553784     -2.298624    -0.704818
H      1.911250     -3.186029    -0.859494
49
 -1042.13405682 -1041.76285200  6.05 6.75
C      1.011898      0.568458     2.677054
C      1.208207      1.451081     1.406797
H      1.561270      1.003454     3.517049
H      0.294593      1.473047     0.808448
C      1.694989      2.851096     1.616852
C      2.992636      3.155137     1.583471
H      0.955900      3.621413     1.827074
H      3.325912      4.174031     1.759552
C      4.007873      2.125769     1.315399
C      3.669713      0.874338     1.000226
H      5.054971      2.410312     1.373392
H      4.443108      0.131560     0.814133
C      2.245692      0.416714     0.882699
C      1.818686     -0.573030     2.009787
H      2.078858      0.043755    -0.131747
H      2.670377     -0.918062     2.603410
C     -0.384384      0.181249     3.130805
H     -0.925775      1.067761     3.481334
H     -0.269479     -0.467985     4.007533
C     -1.254984     -0.559337     2.085109
C     -2.195921      0.372796     1.362882
H     -1.914667     -1.207532     2.678458
H     -2.672424      1.137654     1.973032
C     -2.536616      0.265840     0.085460
C     -1.930688     -0.779617    -0.818734
H     -3.281978      0.932804    -0.339346
H     -2.506011     -1.708020    -0.715925
C     -1.959825     -0.371809    -2.279859
C     -2.441697     -1.242933    -3.253288
C     -1.482374      0.876777    -2.677892
C     -2.450909     -0.877403    -4.594658
H     -2.810329     -2.221230    -2.958039
C     -1.489298      1.246484    -4.015945
H     -1.104410      1.569578    -1.930804
C     -1.974762      0.369065    -4.980204
H     -2.831490     -1.569756    -5.339424
H     -1.114318      2.222713    -4.308122
H     -1.980497      0.657088    -6.026700
C      0.962083     -1.788786     1.651681
H      0.858238     -2.391443     2.562906
H      1.500579     -2.422051     0.937587
C     -0.460687     -1.505384     1.130607
C     -0.489182     -1.043102    -0.341487
H     -0.985834     -2.467354     1.134156
H      0.071026     -0.120732    -0.472122
C      0.199321     -2.053312    -1.232643
O      1.222177     -1.865509    -1.838798
O     -0.455090     -3.236505    -1.285134
H      0.055519     -3.809086    -1.876019
49
 -1042.13299813 -1041.76246200  6.71 7.00
C     -0.147686      0.165287     2.823726
C      0.432969      1.604071     2.676047
H      0.057950     -0.258568     3.810430
H     -0.333317      2.363814     2.483982
C      1.297276      2.045886     3.818573
C      2.612957      2.228594     3.697636
H      0.809427      2.220229     4.775783
H      3.197553      2.561846     4.550786
C      3.313181      1.998145     2.424526
C      2.670750      1.512805     1.361823
H      4.372888      2.231036     2.370484
H      3.206001      1.332221     0.431837
C      1.219053      1.157369     1.418841
C      0.852115     -0.327341     1.734105
H      0.716003      1.479051     0.505544
H      1.707192     -0.810813     2.213430
C     -1.633810     -0.014720     2.511670
H     -2.204473      0.823087     2.930533
H     -1.990782     -0.914101     3.027037
C     -1.978200     -0.190445     1.028138
C     -1.854397      1.044588     0.173916
H     -3.040742     -0.472373     0.996599
H     -2.024275      2.009683     0.647292
C     -1.613726      0.992836    -1.130448
C     -1.434278     -0.278643    -1.920750
H     -1.580554      1.915247    -1.706680
H     -2.260449     -0.300673    -2.642331
C     -0.162099     -0.298147    -2.762119
C      0.884172      0.602529    -2.578764
C     -0.041565     -1.249141    -3.778162
C      2.022316      0.548162    -3.377556
H      0.814154      1.357928    -1.803758
C      1.091612     -1.308309    -4.576383
H     -0.852813     -1.952598    -3.948769
C      2.132793     -0.407774    -4.377139
H      2.825603      1.259957    -3.213511
H      1.160510     -2.056472    -5.360266
H      3.020979     -0.449557    -4.999322
C      0.358371     -1.183725     0.559634
H      0.791132     -2.187571     0.625431
H      0.760467     -0.752310    -0.359681
C     -1.171059     -1.347329     0.428383
C     -1.575018     -1.555028    -1.050387
H     -1.452183     -2.252684     0.977348
H     -0.943705     -2.348175    -1.463588
C     -2.996788     -2.078724    -1.098986
O     -3.976752     -1.465398    -1.432763
O     -3.063182     -3.367356    -0.692256
H     -3.995569     -3.626392    -0.729917
49
 -1042.13294430 -1041.76208300  6.74 7.24
C      2.475654      1.875255    -0.874829
C      1.817416      1.362788    -2.188191
H      3.455463      2.333397    -1.040050
H      0.899599      1.891257    -2.464979
C      2.748527      1.328618    -3.363382
C      3.160179      0.191388    -3.925976
H      3.085912      2.284709    -3.759143
H      3.823805      0.217675    -4.785970
C      2.731791     -1.122050    -3.420167
C      1.994162     -1.227593    -2.314633
H      3.033741     -2.009199    -3.969735
H      1.694836     -2.206240    -1.945520
C      1.591916     -0.022022    -1.524327
C      2.534489      0.416387    -0.358267
H      0.559881     -0.120065    -1.188897
H      3.526512     -0.016842    -0.516580
C      1.654625      2.784504     0.035823
H      1.344426      3.683502    -0.510629
H      2.316044      3.130952     0.839501
C      0.415336      2.150132     0.693212
C     -0.765553      2.030704    -0.238250
H      0.091252      2.881280     1.447366
H     -0.806089      2.708093    -1.087734
C     -1.789957      1.227471     0.016175
C     -1.772361      0.321980     1.222902
H     -2.668243      1.223384    -0.622805
H     -1.990728      0.918759     2.117523
C     -2.797665     -0.792893     1.141809
C     -2.905817     -1.576184    -0.007749
C     -3.631809     -1.073714     2.221102
C     -3.828744     -2.610652    -0.079222
H     -2.262140     -1.371661    -0.859394
C     -4.557573     -2.108350     2.153745
H     -3.546544     -0.482495     3.128035
C     -4.659979     -2.879759     1.003139
H     -3.899647     -3.209829    -0.982040
H     -5.199938     -2.312146     3.005066
H     -5.382362     -3.688048     0.949183
C      2.126430      0.239117     1.097612
H      2.899151      0.719743     1.709733
H      2.145859     -0.822879     1.368162
C      0.750006      0.835808     1.471568
C     -0.348547     -0.252528     1.378260
H      0.802088      1.114075     2.528781
H     -0.156070     -0.906357     0.524807
C     -0.296799     -1.109288     2.627208
O     -0.552061     -0.719331     3.738007
O      0.070787     -2.384215     2.379029
H      0.068738     -2.846639     3.230720
49
 -1042.13267514 -1041.76162300  6.91 7.53
C     -0.930125     -2.593931     0.903277
C     -2.355963     -1.964797     0.884973
H     -0.867619     -3.446568     1.584980
H     -2.838868     -2.010114    -0.097885
C     -3.289011     -2.509951     1.924059
C     -3.718394     -1.785408     2.958367
H     -3.618192     -3.540921     1.808274
H     -4.405012     -2.219408     3.680086
C     -3.293714     -0.390957     3.156653
C     -2.390433      0.175123     2.355870
H     -3.732901      0.169305     3.977221
H     -2.073806      1.202330     2.525174
C     -1.750026     -0.584078     1.237784
C     -0.380533     -1.276141     1.526937
H     -1.668498      0.047110     0.351768
H     -0.267734     -1.400417     2.607074
C     -0.336605     -2.997616    -0.446555
H     -1.105458     -3.484353    -1.059067
H      0.437435     -3.754384    -0.272779
C      0.324999     -1.867456    -1.243920
C     -0.612863     -0.859384    -1.851415
H      0.841778     -2.351934    -2.081435
H     -1.610124     -1.193690    -2.132000
C     -0.252497      0.391503    -2.113752
C      1.115756      0.966688    -1.848569
H     -0.958902      1.065301    -2.594386
H      1.526453      1.233342    -2.830092
C      1.084931      2.280698    -1.074073
C     -0.027474      2.716664    -0.360112
C      2.222632      3.090704    -1.091050
C     -0.002723      3.926207     0.327984
H     -0.925705      2.109204    -0.337797
C      2.251748      4.296156    -0.404851
H      3.094196      2.766280    -1.653617
C      1.136045      4.718955     0.310569
H     -0.881097      4.246305     0.879970
H      3.146374      4.910895    -0.432363
H      1.154648      5.661715     0.847900
C      0.873514     -0.609771     0.945205
H      1.692925     -0.673252     1.669045
H      0.661798      0.457368     0.837389
C      1.396746     -1.173350    -0.396400
C      2.095585     -0.066508    -1.199085
H      2.152123     -1.933210    -0.170484
H      2.753849      0.490872    -0.522214
C      3.034345     -0.643103    -2.243123
O      3.174297     -1.802860    -2.530432
O      3.772628      0.326356    -2.836479
H      4.349473     -0.115515    -3.476627
49
 -1042.13159850 -1041.76045800  7.59 8.26
C      0.927611     -0.158855     3.085661
C      1.187285      1.310600     2.644294
H      1.393810     -0.403794     4.044762
H      0.287645      1.932953     2.605003
C      2.243131      2.009738     3.447957
C      3.423501      2.363568     2.937296
H      2.011985      2.231008     4.488243
H      4.151368      2.882167     3.555339
C      3.778073      2.080135     1.537839
C      2.970106      1.366442     0.753396
H      4.719474      2.465750     1.156628
H      3.250538      1.154174    -0.276092
C      1.683200      0.799410     1.265117
C      1.721111     -0.648710     1.849076
H      0.900862      0.905909     0.514127
H      2.751323     -0.899837     2.118262
C     -0.512584     -0.665144     3.096041
H     -1.126060     -0.041327     3.757519
H     -0.507253     -1.667247     3.542441
C     -1.206624     -0.769348     1.726096
C     -1.676187      0.559315     1.185037
H     -2.134481     -1.326208     1.920147
H     -1.847730      1.361569     1.898253
C     -1.991989      0.730605    -0.091637
C     -1.810623     -0.396697    -1.080200
H     -2.406954      1.669975    -0.445309
H     -2.626718     -1.115271    -0.937942
C     -1.844238      0.069182    -2.522717
C     -2.677185     -0.548422    -3.452075
C     -1.026638      1.115279    -2.950842
C     -2.697483     -0.131893    -4.778284
H     -3.313700     -1.369232    -3.134331
C     -1.042861      1.534670    -4.274077
H     -0.370948      1.610742    -2.239620
C     -1.880226      0.911445    -5.193697
H     -3.354158     -0.625620    -5.488191
H     -0.399519      2.350546    -4.589566
H     -1.893799      1.238262    -6.228649
C      1.091754     -1.817544     1.104299
H      1.165609     -2.693936     1.759765
H      1.679863     -2.056534     0.211158
C     -0.388470     -1.621551     0.700402
C     -0.478408     -1.102059    -0.756708
H     -0.848004     -2.615226     0.702427
H      0.328776     -0.390664    -0.940373
C     -0.206993     -2.244390    -1.712348
O      0.802620     -2.400021    -2.348101
O     -1.233730     -3.124594    -1.773348
H     -0.966083     -3.819323    -2.392474
