49
 -1042.14451818 -1041.77318000  0.00 0.00
C     -1.196960     -2.194590    -1.155718
C     -2.641157     -2.134365    -0.579875
H     -0.961476     -3.083869    -1.748281
H     -3.300317     -1.421429    -1.089230
C     -3.323372     -3.465586    -0.467212
C     -3.673243     -3.997279     0.705974
H     -3.545754     -3.993410    -1.392442
H     -4.188146     -4.953659     0.738390
C     -3.395380     -3.316577     1.980196
C     -2.650856     -2.210444     2.019603
H     -3.808569     -3.739840     2.891342
H     -2.442277     -1.719461     2.967261
C     -2.044090     -1.652839     0.771402
C     -0.674911     -2.233366     0.307187
H     -2.000956     -0.560126     0.813808
H     -0.632540     -3.275332     0.639642
C     -0.799533     -0.925353    -1.918702
H     -1.437748     -0.085670    -1.611709
H     -0.974039     -1.068908    -2.991149
C      0.660888     -0.537342    -1.661217
C      1.095836      0.632128    -2.501777
H      1.293872     -1.392115    -1.929893
H      0.842590      0.594406    -3.560584
C      1.763100      1.682983    -2.037534
C      2.192786      1.841974    -0.600102
H      2.023651      2.497023    -2.710125
H      3.229647      2.195303    -0.593861
C      1.381104      2.885755     0.155474
C      1.960528      3.525815     1.251161
C      0.070712      3.209916    -0.187894
C      1.251285      4.464207     1.989141
H      2.984543      3.284786     1.525839
C     -0.642547      4.149898     0.547929
H     -0.393663      2.726896    -1.041361
C     -0.056491      4.779463     1.638678
H      1.722015      4.952343     2.837072
H     -1.662761      4.390794     0.265051
H     -0.615147      5.512972     2.211268
C      0.633150     -1.531376     0.649185
H      1.462648     -2.214909     0.440616
H      0.662852     -1.307732     1.723235
C      0.835596     -0.251296    -0.163698
C      2.145864      0.477383     0.142781
H      0.047633      0.460079     0.120334
H      2.202695      0.681015     1.217855
C      3.391245     -0.321205    -0.188863
O      3.461083     -1.341941    -0.822136
O      4.495297      0.265635     0.331580
H      5.251312     -0.280762     0.071357
49
 -1042.14121648 -1041.77013400  2.07 1.91
C     -1.105826     -2.517875    -0.334007
C     -2.337075     -2.517546     0.617467
H     -0.873893     -3.475468    -0.810055
H     -3.226069     -2.026067     0.204709
C     -2.706965     -3.867245     1.157873
C     -2.635857     -4.165626     2.456944
H     -3.059331     -4.611328     0.446364
H     -2.937575     -5.149169     2.806862
C     -2.169549     -3.188888     3.453176
C     -1.658811     -2.015211     3.077369
H     -2.247553     -3.448410     4.505137
H     -1.307688     -1.302944     3.820290
C     -1.508985     -1.676378     1.628352
C     -0.225527     -2.170163     0.895583
H     -1.656208     -0.604955     1.461053
H      0.088163     -3.099747     1.380922
C     -1.162420     -1.398719    -1.378195
H     -1.837317     -0.602459    -1.036579
H     -1.589179     -1.782888    -2.311546
C      0.208706     -0.764865    -1.642177
C      0.132846      0.276342    -2.729070
H      0.894794     -1.558785    -1.977244
H     -0.463439      0.029756    -3.606347
C      0.741850      1.453017    -2.670682
C      1.619596      1.899288    -1.527262
H      0.620395      2.166044    -3.483317
H      2.552501      2.281785    -1.958382
C      1.005388      3.049854    -0.739539
C      1.843700      3.951927    -0.083976
C     -0.372701      3.224385    -0.628748
C      1.323574      4.998004     0.666702
H      2.921293      3.833457    -0.165865
C     -0.897586      4.271167     0.121295
H     -1.041776      2.540709    -1.140919
C     -0.052902      5.160768     0.772594
H      1.995057      5.689239     1.166913
H     -1.974222      4.391143     0.194855
H     -0.464615      5.977296     1.357212
C      0.980388     -1.260765     0.707903
H      1.832736     -1.873950     0.397811
H      1.264799     -0.810733     1.666319
C      0.741892     -0.165603    -0.334532
C      1.974491      0.731171    -0.575596
H     -0.034373      0.511982     0.046243
H      2.283625      1.139760     0.390472
C      3.170887     -0.078009    -1.038433
O      3.940375     -0.638875    -0.299269
O      3.314585     -0.129112    -2.379231
H      4.095804     -0.675313    -2.549453
49
 -1042.14069611 -1041.76981600  2.40 2.11
C     -1.147297     -2.231984    -0.904542
C     -2.544598     -2.141197    -0.226242
H     -0.943916     -3.159704    -1.448146
H     -3.251319     -1.476234    -0.736738
C     -3.195436     -3.466365     0.040119
C     -3.448017     -3.908181     1.274054
H     -3.478179     -4.066841    -0.822179
H     -3.943992     -4.864104     1.419164
C     -3.086257     -3.127322     2.467159
C     -2.357749     -2.014572     2.364618
H     -3.424036     -3.481773     3.436864
H     -2.086781     -1.448654     3.252823
C     -1.854056     -1.551276     1.034589
C     -0.516905     -2.156878     0.513254
H     -1.822338     -0.458236     0.989258
H     -0.440272     -3.170960     0.917987
C     -0.831359     -1.017257    -1.784259
H     -1.450545     -0.162379    -1.480197
H     -1.095609     -1.234383    -2.825487
C      0.639360     -0.594126    -1.680991
C      0.958163      0.544419    -2.616355
H      1.260603     -1.453673    -1.966209
H      0.640340      0.426959    -3.651478
C      1.579346      1.662743    -2.255307
C      2.093525      1.924436    -0.860422
H      1.738618      2.450235    -2.988361
H      3.090558      2.367101    -0.943515
C      1.234627      2.906203    -0.075751
C      1.809980      3.610706     0.981974
C     -0.113069      3.120016    -0.359039
C      1.062185      4.500124     1.742085
H      2.862815      3.463005     1.209389
C     -0.865274      4.010368     0.398984
H     -0.576950      2.589355    -1.183846
C     -0.282279      4.702323     1.452833
H      1.531686      5.039096     2.559352
H     -1.913824      4.163671     0.162412
H     -0.871330      5.396946     2.043157
C      0.809161     -1.429585     0.702730
H      1.622330     -2.132123     0.508939
H      0.908747     -1.110418     1.748007
C      0.942064     -0.218173    -0.224218
C      2.247580      0.580816    -0.103227
H      0.165334      0.498854     0.074807
H      2.429409      0.801818     0.955867
C      3.535771     -0.081752    -0.575030
O      4.566027      0.515391    -0.757706
O      3.464442     -1.418394    -0.750931
H      4.348718     -1.698041    -1.030252
49
 -1042.13594094 -1041.76533400  5.38 4.92
C      1.134275     -0.228590     2.304336
C      1.825099      1.059626     2.839446
H      1.476949     -1.088936     2.887210
H      1.202120      1.933443     2.623221
C      2.279324      1.078757     4.264797
C      3.489141      0.632701     4.605480
H      1.587877      1.433061     5.025762
H      3.802724      0.621542     5.645470
C      4.429356      0.136193     3.589162
C      4.171356      0.237128     2.283528
H      5.358873     -0.313258     3.928062
H      4.885573     -0.141670     1.555362
C      2.920032      0.872102     1.752230
C      1.976189     -0.113297     1.004611
H      3.173829      1.772900     1.180449
H      2.449203     -1.043189     0.678431
C     -0.379879     -0.291542     2.102403
H     -0.811990      0.716216     2.052913
H     -0.866364     -0.805287     2.938269
C     -0.643479     -1.018337     0.780126
C     -2.062085     -1.471067     0.553339
H     -0.016964     -1.923961     0.795666
H     -2.637281     -1.794096     1.419033
C     -2.607627     -1.532702    -0.655557
C     -1.899706     -1.150568    -1.934195
H     -3.632674     -1.878425    -0.769660
H     -1.987042     -2.001566    -2.619032
C     -2.550828      0.041236    -2.624223
C     -2.420819      0.181139    -4.006823
C     -3.257905      1.017084    -1.924339
C     -2.975039      1.265513    -4.673313
H     -1.878629     -0.574979    -4.569222
C     -3.815628      2.104470    -2.588233
H     -3.382473      0.921687    -0.850686
C     -3.675802      2.234308    -3.963733
H     -2.862840      1.352162    -5.749830
H     -4.363724      2.853328    -2.024525
H     -4.112025      3.083416    -4.480165
C      1.188607      0.527307    -0.137751
H      1.787050      0.519725    -1.052532
H      1.021689      1.582006     0.111262
C     -0.197041     -0.121230    -0.382565
C     -0.392763     -0.881215    -1.710600
H     -0.923566      0.699003    -0.430484
H     -0.011201     -0.262152    -2.529662
C      0.393829     -2.175079    -1.752297
O     -0.058710     -3.287578    -1.684434
O      1.722292     -1.953988    -1.893645
H      2.148702     -2.823335    -1.913062
49
 -1042.13244186 -1041.76249100  7.58 6.71
C     -2.606089      0.444112     1.571126
C     -3.858452     -0.461887     1.392459
H     -2.769126      1.380006     2.114119
H     -3.870621     -1.348466     2.037575
C     -5.169283      0.260437     1.496347
C     -6.014502      0.367621     0.468796
H     -5.426776      0.692855     2.461095
H     -6.964600      0.879287     0.596663
C     -5.708499     -0.205463    -0.850981
C     -4.508275     -0.725899    -1.112060
H     -6.484232     -0.191497    -1.611308
H     -4.287544     -1.139323    -2.093330
C     -3.425492     -0.703959    -0.080567
C     -2.553254      0.582732     0.028652
H     -2.790539     -1.591354    -0.162746
H     -3.180525      1.426888    -0.274737
C     -1.405898     -0.310791     2.146257
H     -1.528607     -1.388932     1.975055
H     -1.368422     -0.175599     3.232995
C     -0.074239      0.109129     1.519205
C      1.094308     -0.602098     2.153605
H      0.056757      1.193239     1.665837
H      0.945985     -1.116005     3.100446
C      2.284099     -0.580157     1.568517
C      2.465489      0.200605     0.288741
H      3.148506     -1.064533     2.012277
H      2.436029      1.263129     0.552876
C      3.791750     -0.065640    -0.395701
C      4.214180     -1.371686    -0.646146
C      4.605118      0.987613    -0.806518
C      5.418829     -1.618365    -1.290723
H      3.593206     -2.206227    -0.331054
C      5.812189      0.745481    -1.452553
H      4.286751      2.009591    -0.622488
C      6.223186     -0.558506    -1.696790
H      5.731459     -2.641269    -1.478102
H      6.432674      1.579939    -1.765140
H      7.164933     -0.750002    -2.201332
C     -1.200796      0.687188    -0.658905
H     -0.887350      1.737050    -0.626728
H     -1.307508      0.420386    -1.716676
C     -0.115927     -0.172954     0.003269
C      1.290244     -0.081783    -0.683798
H     -0.416670     -1.222325    -0.097043
H      1.480648     -1.048382    -1.154396
C      1.306932      0.893508    -1.842627
O      1.168873      0.591932    -2.999348
O      1.489328      2.180807    -1.461424
H      1.481757      2.709570    -2.272691
