49
 -1042.13777123 -1041.76713100  0.00 0.00
C     -2.105652     -0.337179    -1.871125
C     -2.004515     -1.690952    -2.637828
H     -2.954614      0.242487    -2.245827
H     -1.566847     -2.455387    -1.988291
C     -3.237938     -2.219203    -3.299805
C     -3.535238     -1.904469    -4.561083
H     -3.909679     -2.844091    -2.715578
H     -4.447304     -2.271896    -5.022757
C     -2.646868     -1.046647    -5.360071
C     -1.456966     -0.650616    -4.904533
H     -2.980836     -0.743220    -6.348602
H     -0.823072     -0.012009    -5.516273
C     -0.928198     -1.054229    -3.560092
C     -0.788921      0.122563    -2.553529
H     -0.012856     -1.645235    -3.684640
H     -0.819770      1.119216    -3.005864
C     -2.064777     -0.327516    -0.344792
H     -1.579970     -1.225923     0.045296
H     -3.078691     -0.310711     0.070076
C     -1.294695      0.917082     0.129768
C     -1.439237      1.166825     1.605954
H     -1.786282      1.769589    -0.363331
H     -2.457176      1.160109     1.992516
C     -0.438936      1.441757     2.431410
C      0.999380      1.507778     1.978327
H     -0.640190      1.665940     3.475426
H      1.195815      2.537352     1.646927
C      1.997755      1.202787     3.081539
C      1.750110      0.215740     4.035665
C      3.203977      1.898958     3.140171
C      2.687534     -0.067509     5.020722
H      0.818459     -0.340099     4.002684
C      4.143726      1.618494     4.124304
H      3.409379      2.674924     2.406868
C      3.887995      0.631980     5.069004
H      2.479201     -0.840134     5.754716
H      5.076760      2.173053     4.153476
H      4.619260      0.409107     5.839516
C      0.377913      0.007356    -1.584859
H      1.325736      0.249341    -2.078945
H      0.455055     -1.038110    -1.261111
C      0.181721      0.919934    -0.360657
C      1.227545      0.617218     0.732953
H      0.404210      1.946492    -0.678400
H      2.217772      0.846780     0.328226
C      1.262695     -0.850304     1.119947
O      0.332005     -1.511253     1.501161
O      2.501388     -1.375347     0.990303
H      2.443831     -2.300820     1.271036
49
 -1042.13701758 -1041.76523900  0.47 1.19
C     -0.019000      0.401877     2.637520
C      0.211682     -0.903003     3.450528
H     -0.579315      1.180530     3.165102
H      1.256150     -1.065170     3.743026
C     -0.675533     -1.049677     4.651059
C     -1.612900     -1.994173     4.745057
H     -0.522733     -0.350130     5.470501
H     -2.219072     -2.072979     5.643444
C     -1.854004     -2.956862     3.659343
C     -1.221847     -2.849133     2.490129
H     -2.566145     -3.759093     3.830925
H     -1.419918     -3.558508     1.689947
C     -0.266225     -1.729455     2.223341
C     -0.833038     -0.418100     1.600175
H      0.582908     -2.087514     1.632793
H     -1.906629     -0.341669     1.797731
C      1.230875      0.976691     1.987290
H      1.839354      0.148696     1.601139
H      1.852587      1.500212     2.722149
C      0.885993      1.924460     0.814188
C      2.084908      2.060144    -0.093518
H      0.679470      2.918996     1.234622
H      3.035161      2.253956     0.402977
C      2.071634      1.939890    -1.415564
C      0.820046      1.711531    -2.225084
H      3.004875      2.015907    -1.969456
H      0.832069      2.430372    -3.053181
C      0.773690      0.328503    -2.871514
C      1.584050     -0.719224    -2.439292
C     -0.068793      0.100847    -3.960622
C      1.530388     -1.965443    -3.053011
H      2.268809     -0.558854    -1.613658
C     -0.128326     -1.142693    -4.575608
H     -0.680490      0.911102    -4.343539
C      0.668536     -2.185505    -4.119498
H      2.168064     -2.767401    -2.693968
H     -0.795035     -1.293335    -5.419269
H      0.625424     -3.159340    -4.596877
C     -0.522030     -0.068755     0.147213
H     -1.303014     -0.429461    -0.523859
H      0.413315     -0.542283    -0.159272
C     -0.383439      1.457459     0.059548
C     -0.393898      2.088718    -1.336543
H     -1.254203      1.873199     0.581257
H     -0.293278      3.172732    -1.187161
C     -1.726866      1.933572    -2.039387
O     -2.630808      1.203839    -1.730068
O     -1.830677      2.784027    -3.092002
H     -2.712771      2.650498    -3.469053
49
 -1042.13563590 -1041.76392200  1.34 2.01
C      0.615617      0.629120     2.456911
C      1.413738     -0.505954     3.157948
H      0.064297      1.289250     3.134369
H      2.502101     -0.387231     3.094012
C      1.017482     -0.752416     4.583526
C      0.426301     -1.879113     4.984150
H      1.240004      0.032294     5.303877
H      0.174556     -2.019772     6.031805
C      0.104710     -2.962300     4.042398
C      0.289819     -2.812425     2.730336
H     -0.293447     -3.890757     4.441898
H      0.034214     -3.615594     2.043063
C      0.802763     -1.528496     2.158575
C     -0.239847     -0.449250     1.737795
H      1.488605     -1.729765     1.329619
H     -1.186374     -0.612593     2.261987
C      1.407928      1.436612     1.439308
H      2.056499      0.755322     0.873541
H      2.071304      2.153972     1.935336
C      0.479999      2.175848     0.447715
C      1.265090      2.583976    -0.775699
H      0.139209      3.100005     0.935917
H      2.209005      3.092519    -0.581752
C      0.910229      2.355701    -2.034418
C     -0.381753      1.684886    -2.427813
H      1.574692      2.656658    -2.841547
H     -0.832184      2.265395    -3.241067
C     -0.156618      0.280135    -2.989712
C      1.027181     -0.421253    -2.764892
C     -1.127648     -0.313561    -3.798720
C      1.223033     -1.689079    -3.299890
H      1.810709      0.030695    -2.166476
C     -0.935678     -1.580427    -4.334750
H     -2.042364      0.225477    -4.017960
C      0.238774     -2.278325    -4.082399
H      2.151750     -2.216102    -3.103824
H     -1.707633     -2.020039    -4.959258
H      0.390397     -3.268833    -4.499715
C     -0.480133     -0.163866     0.258077
H     -1.299495     -0.770097    -0.133780
H      0.407918     -0.421966    -0.321616
C     -0.779726      1.334815     0.112503
C     -1.353996      1.806261    -1.228812
H     -1.536920      1.570108     0.868337
H     -1.508155      2.890234    -1.120835
C     -2.753189      1.324380    -1.564760
O     -3.335453      1.602355    -2.583336
O     -3.347360      0.608635    -0.586865
H     -4.239954      0.404558    -0.903111
49
 -1042.13475664 -1041.76352500  1.89 2.26
C     -1.425797     -1.687771    -1.749405
C     -1.671791     -3.107439    -1.154005
H     -1.827166     -1.631900    -2.765578
H     -1.784248     -3.041924    -0.067231
C     -2.773116     -3.934449    -1.738887
C     -2.549103     -4.763046    -2.759407
H     -3.775314     -3.820439    -1.331969
H     -3.361812     -5.338534    -3.193360
C     -1.203350     -4.916825    -3.332684
C     -0.135742     -4.333274    -2.785063
H     -1.092470     -5.532243    -4.221367
H      0.847081     -4.461106    -3.234001
C     -0.218053     -3.491875    -1.545990
C      0.097547     -1.987156    -1.778809
H      0.373449     -3.952224    -0.745527
H      0.599035     -1.765573    -2.726496
C     -1.810464     -0.451857    -0.939828
H     -1.853381     -0.681768     0.127907
H     -2.806400     -0.094482    -1.224053
C     -0.773756      0.657654    -1.187594
C     -1.212393      1.997463    -0.662829
H     -0.728599      0.770249    -2.281304
H     -2.211256      2.319514    -0.953811
C     -0.458442      2.811866     0.062821
C      0.953260      2.472540     0.473703
H     -0.835092      3.790915     0.347506
H      1.617001      2.825989    -0.328306
C      1.405125      3.164080     1.748572
C      0.528498      3.389510     2.809314
C      2.733225      3.564269     1.886683
C      0.969733      3.998389     3.977462
H     -0.509067      3.084857     2.719657
C      3.178893      4.172999     3.053095
H      3.428505      3.399777     1.067308
C      2.296789      4.391606     4.104614
H      0.272608      4.165135     4.793123
H      4.217256      4.478272     3.139679
H      2.640936      4.866586     5.017904
C      0.796254     -1.286744    -0.623923
H      1.856746     -1.557180    -0.577259
H      0.350288     -1.637721     0.314956
C      0.655261      0.242403    -0.732059
C      1.172043      0.942795     0.545603
H      1.339906      0.578439    -1.520716
H      2.248363      0.758823     0.607194
C      0.652015      0.336108     1.835593
O      1.345916     -0.218867     2.648609
O     -0.680767      0.459352     2.011250
H     -0.878155      0.054808     2.868904
49
 -1042.13649721 -1041.76334300  0.80 2.38
C      0.079932     -1.061250     2.482200
C     -1.183397     -1.705629     1.838298
H     -0.039037     -1.139170     3.567783
H     -0.975334     -1.988840     0.802647
C     -1.856841     -2.818458     2.576565
C     -2.742082     -2.557569     3.539902
H     -1.587743     -3.845106     2.338792
H     -3.207154     -3.363765     4.100091
C     -3.108745     -1.173405     3.876432
C     -2.699644     -0.138066     3.139356
H     -3.741279     -1.008433     4.744589
H     -2.989559      0.874371     3.412671
C     -1.853212     -0.305397     1.911846
C     -0.433318      0.322939     2.016807
H     -2.418060      0.001293     1.023336
H     -0.317819      1.135155     2.741567
C      1.492025     -1.481148     2.102768
H      1.582399     -2.573879     2.143360
H      2.171414     -1.091559     2.870899
C      1.989844     -0.961631     0.744601
C      1.553593     -1.791651    -0.439468
H      3.087947     -1.030317     0.775244
H      1.405899     -2.857463    -0.274710
C      1.397363     -1.303994    -1.665595
C      1.618027      0.139487    -2.051700
H      1.106441     -1.972775    -2.472841
H      2.400129      0.143289    -2.821978
C      0.392671      0.756696    -2.728931
C      0.556198      1.857145    -3.572779
C     -0.888005      0.223942    -2.594025
C     -0.526539      2.435521    -4.220999
H      1.549117      2.263667    -3.733712
C     -1.975866      0.796745    -3.243194
H     -1.042950     -0.657811    -1.982533
C     -1.802190      1.911252    -4.052703
H     -0.369712      3.294016    -4.867104
H     -2.963622      0.364880    -3.115052
H     -2.651893      2.359984    -4.557385
C      0.110526      0.723381     0.645346
H     -0.145276      1.761770     0.427077
H     -0.380755      0.113347    -0.112597
C      1.621937      0.515016     0.521602
C      2.215169      0.918413    -0.837654
H      2.121079      1.117310     1.291898
H      3.272317      0.625807    -0.814461
C      2.241778      2.418123    -1.044917
O      1.554317      3.238843    -0.498763
O      3.205406      2.774526    -1.931856
H      3.174498      3.740399    -2.000723
49
 -1042.13461309 -1041.76165000  1.98 3.44
C     -0.504725     -0.597295     2.552546
C     -1.423027     -1.563264     1.746769
H     -0.936688     -0.505254     3.554333
H     -0.876279     -1.980861     0.896567
C     -2.147671     -2.633384     2.499627
C     -3.309564     -2.373535     3.101522
H     -1.694901     -3.619210     2.577487
H     -3.820679     -3.140206     3.676871
C     -3.928590     -1.042383     3.010215
C     -3.444581     -0.094939     2.203572
H     -4.811244     -0.846356     3.613129
H     -3.926093      0.879554     2.156022
C     -2.249947     -0.317470     1.323378
C     -1.018441      0.567454     1.672301
H     -2.549336     -0.278705     0.269090
H     -1.229800      1.501135     2.203308
C      0.996481     -0.811551     2.672608
H      1.205537     -1.846809     2.969705
H      1.357014     -0.181218     3.494840
C      1.816026     -0.448131     1.423966
C      1.870356     -1.533094     0.373398
H      2.851529     -0.308612     1.769194
H      1.817399     -2.563634     0.719995
C      2.033089     -1.299654    -0.924862
C      2.172378      0.073457    -1.537798
H      2.087708     -2.139105    -1.614716
H      3.136836      0.095647    -2.061253
C      1.126712      0.339570    -2.623702
C      1.374027      1.311276    -3.596553
C     -0.047301     -0.404901    -2.729522
C      0.458480      1.562039    -4.609732
H      2.298663      1.877582    -3.566153
C     -0.965860     -0.158898    -3.743556
H     -0.247930     -1.198085    -2.017992
C     -0.721685      0.832673    -4.683972
H      0.674427      2.326621    -5.349956
H     -1.875083     -0.749682    -3.797418
H     -1.439227      1.027003    -5.474852
C     -0.135680      0.813833     0.448810
H     -0.453860      1.723425    -0.063012
H     -0.286032     -0.004984    -0.254010
C      1.355621      0.878694     0.793267
C      2.292670      1.132823    -0.399899
H      1.514240      1.681121     1.524751
H      3.312296      1.000501    -0.018161
C      2.335263      2.546413    -0.943133
O      3.254725      2.980106    -1.592352
O      1.272719      3.310841    -0.622930
H      1.430025      4.179456    -1.021735
49
 -1042.13425421 -1041.76143000  2.21 3.58
C     -2.350464     -0.515695     1.387963
C     -2.497478     -1.323225     0.063726
H     -3.356290     -0.399112     1.804559
H     -1.542488     -1.779031    -0.210309
C     -3.616705     -2.310619    -0.034344
C     -4.841918     -1.917149    -0.386112
H     -3.423447     -3.350465     0.219223
H     -5.663407     -2.626848    -0.425341
C     -5.118195     -0.512318    -0.723652
C     -4.139604      0.387645    -0.845866
H     -6.151793     -0.219286    -0.887353
H     -4.375602      1.419194    -1.098879
C     -2.692390      0.035567    -0.664434
C     -2.007770      0.735321     0.545363
H     -2.157615      0.148793    -1.614717
H     -2.471685      1.666651     0.885283
C     -1.393005     -0.923530     2.495979
H     -1.543650     -1.978819     2.755760
H     -1.656159     -0.347933     3.392096
C      0.090682     -0.664293     2.198167
C      0.729097     -1.711022     1.318682
H      0.612034     -0.704699     3.166502
H      0.312373     -2.715969     1.344642
C      1.784415     -1.472676     0.549273
C      2.509376     -0.144757     0.465949
H      2.196224     -2.278785    -0.052930
H      3.511103     -0.319468     0.879386
C      2.771291      0.219896    -0.996448
C      2.141339      1.239710    -1.703675
C      3.730144     -0.545316    -1.667547
C      2.451083      1.477819    -3.039941
H      1.406460      1.874669    -1.230086
C      4.039217     -0.314142    -2.998864
H      4.243490     -1.340067    -1.131967
C      3.395361      0.702917    -3.695814
H      1.943876      2.279942    -3.567785
H      4.787752     -0.926336    -3.492591
H      3.632565      0.890851    -4.738024
C     -0.503935      0.927294     0.324890
H     -0.336332      1.929734    -0.074151
H     -0.155166      0.214432    -0.428913
C      0.324099      0.733897     1.599691
C      1.842864      0.894105     1.411295
H      0.006287      1.485669     2.332423
H      2.285015      0.685310     2.395346
C      2.271014      2.320721     1.139069
O      1.546259      3.275281     1.024741
O      3.616220      2.431850     1.088562
H      3.815459      3.364293     0.921176
49
 -1042.13184971 -1041.76072800  3.72 4.02
C     -1.696097     -2.275485    -0.080063
C     -3.069275     -2.077863     0.630663
H     -1.610426     -3.302054    -0.448775
H     -3.393611     -1.037120     0.532692
C     -4.187620     -3.004844     0.271642
C     -4.376605     -4.148193     0.931405
H     -4.828123     -2.740509    -0.566710
H     -5.174808     -4.826971     0.644804
C     -3.509126     -4.528893     2.056574
C     -2.583710     -3.699227     2.541906
H     -3.644727     -5.512656     2.497743
H     -1.953249     -4.010010     3.372426
C     -2.363478     -2.320410     1.993733
C     -0.988347     -2.128044     1.293658
H     -2.577582     -1.574931     2.769070
H     -0.243065     -2.896635     1.522965
C     -1.233871     -1.275664    -1.137035
H     -1.733386     -0.309199    -1.016915
H     -1.481854     -1.630449    -2.143296
C      0.288615     -1.086175    -1.015690
C      0.867742     -0.345410    -2.189890
H      0.714583     -2.100190    -1.047376
H      0.565714     -0.697798    -3.174571
C      1.705221      0.676737    -2.098577
C      2.184079      1.211638    -0.764260
H      2.075171      1.152452    -3.000641
H      3.014914      0.564613    -0.440175
C      2.780159      2.611071    -0.862194
C      3.774648      2.837889    -1.818909
C      2.432492      3.666850    -0.023203
C      4.378079      4.078170    -1.954199
H      4.086129      2.022013    -2.464710
C      3.036558      4.914888    -0.155367
H      1.691371      3.540286     0.756517
C      4.005531      5.130407    -1.122893
H      5.144479      4.224608    -2.709406
H      2.742727      5.721105     0.510345
H      4.473467      6.104248    -1.225804
C     -0.392323     -0.735316     1.428177
H      0.030202     -0.580073     2.426957
H     -1.204069     -0.006931     1.323259
C      0.687074     -0.479222     0.360052
C      1.091650      1.016649     0.299975
H      1.598334     -0.997502     0.683268
H      1.492727      1.282280     1.282483
C     -0.114668      1.913356     0.070746
O     -0.689069      2.104581    -0.965524
O     -0.519311      2.507851     1.223923
H     -1.293271      3.046083     1.001200
49
 -1042.13064746 -1041.75895500  4.47 5.13
C     -1.108093     -2.018042    -1.619176
C     -1.643773     -3.241590    -0.816939
H     -1.260882     -2.180120    -2.690350
H     -1.970959     -2.921670     0.177305
C     -2.688954     -4.100125    -1.456743
C     -2.354332     -5.142678    -2.217905
H     -3.734046     -3.834625    -1.314720
H     -3.119582     -5.743422    -2.701139
C     -0.945172     -5.504989    -2.433436
C      0.045150     -4.892777    -1.781541
H     -0.723199     -6.300662    -3.139460
H      1.078589     -5.179654    -1.964666
C     -0.196205     -3.805586    -0.776480
C      0.337440     -2.410453    -1.210271
H      0.152058     -4.129798     0.211489
H      1.066927     -2.428858    -2.026617
C     -1.511594     -0.599741    -1.222751
H     -1.831635     -0.564010    -0.175689
H     -2.359583     -0.249851    -1.821182
C     -0.299565      0.324983    -1.427757
C     -0.654971      1.786342    -1.395363
H      0.058831      0.117754    -2.446861
H     -1.461158      2.100355    -2.056500
C     -0.050051      2.693508    -0.641324
C      1.089616      2.347727     0.296452
H     -0.368697      3.729602    -0.692044
H      2.011383      2.369954    -0.306698
C      1.305589      3.386692     1.391554
C      1.464773      3.071042     2.739106
C      1.410168      4.730675     1.019532
C      1.686853      4.067546     3.686120
H      1.425663      2.043497     3.082517
C      1.631144      5.725504     1.959035
H      1.325546      5.001032    -0.028889
C      1.764489      5.398084     3.304738
H      1.801510      3.792828     4.730485
H      1.703003      6.760909     1.639751
H      1.935437      6.173375     4.044751
C      0.818082     -1.532600    -0.063743
H      1.809032     -1.845295     0.282470
H      0.145064     -1.675078     0.786513
C      0.857547     -0.043767    -0.463132
C      0.961527      0.891066     0.771021
H      1.791064      0.128208    -1.013166
H      1.871764      0.602700     1.305471
C     -0.141793      0.650119     1.790321
O     -0.061955     -0.162046     2.680019
O     -1.228523      1.426369     1.644292
H     -1.833532      1.187565     2.361601
49
 -1042.13159850 -1041.75855600  3.87 5.38
C     -1.536637      1.771167    -1.382906
C     -2.266502      0.403712    -1.538396
H     -1.890845      2.417005    -2.193005
H     -2.245214     -0.146573    -0.594086
C     -3.638711      0.405316    -2.133710
C     -3.805700      0.405726    -3.457302
H     -4.499229      0.440684    -1.469526
H     -4.800793      0.440807    -3.891600
C     -2.649939      0.365829    -4.366334
C     -1.407844      0.170012    -3.917524
H     -2.831969      0.487800    -5.430751
H     -0.573373      0.142957    -4.615169
C     -1.098870     -0.037729    -2.463933
C     -0.225419      1.081809    -1.826971
H     -0.720338     -1.053958    -2.303088
H      0.392499      1.660349    -2.521049
C     -1.531886      2.555626    -0.081380
H     -2.556722      2.675344     0.291557
H     -1.167662      3.566553    -0.302894
C     -0.639277      1.973157     1.023726
C     -1.266097      0.823483     1.773531
H     -0.488950      2.780815     1.755861
H     -2.352105      0.798699     1.839727
C     -0.563233     -0.125422     2.380556
C      0.949711     -0.183431     2.422361
H     -1.089875     -0.915901     2.909220
H      1.240307     -0.085550     3.476620
C      1.435803     -1.581420     2.032468
C      2.180848     -1.891234     0.899469
C      1.115364     -2.625081     2.905677
C      2.578078     -3.199410     0.638226
H      2.478537     -1.120613     0.202107
C      1.504351     -3.930521     2.649365
H      0.549260     -2.407345     3.807677
C      2.239063     -4.226217     1.505858
H      3.159752     -3.410116    -0.254276
H      1.237443     -4.718759     3.346697
H      2.548498     -5.245608     1.298940
C      0.615546      0.560683    -0.656976
H      1.603743      0.293537    -1.036618
H      0.164737     -0.356784    -0.267024
C      0.748076      1.564339     0.494413
C      1.547918      1.058990     1.711929
H      1.246133      2.464016     0.115057
H      1.461337      1.859755     2.459398
C      3.052191      0.937536     1.562215
O      3.785607      0.563072     2.439115
O      3.524334      1.340941     0.360202
H      4.488055      1.251951     0.402550
49
 -1042.12973232 -1041.75666700  5.04 6.57
C     -1.997839     -0.756846     2.028180
C     -2.782268     -1.407175     0.849889
H     -2.654623     -0.442934     2.844164
H     -2.540481     -2.464902     0.691644
C     -4.270175     -1.239721     0.928083
C     -4.957798     -0.495539     0.060056
H     -4.791017     -1.760433     1.729450
H     -6.038116     -0.416999     0.146467
C     -4.295424      0.230296    -1.035190
C     -2.966447      0.253893    -1.139094
H     -4.916602      0.753605    -1.756504
H     -2.485866      0.810608    -1.941379
C     -2.095544     -0.432280    -0.136402
C     -1.590055      0.407198     1.078262
H     -1.254872     -0.917760    -0.630337
H     -2.274982      1.247209     1.222709
C     -0.841220     -1.572103     2.610150
H     -1.128433     -2.628253     2.682644
H     -0.664987     -1.234180     3.638025
C      0.497855     -1.443364     1.872994
C      0.595151     -2.156099     0.547848
H      1.243164     -1.923702     2.525963
H     -0.003430     -3.055044     0.412077
C      1.412213     -1.773222    -0.427769
C      2.343314     -0.585944    -0.358002
H      1.452260     -2.351624    -1.348655
H      3.360988     -0.981616    -0.472321
C      2.160316      0.369832    -1.537713
C      0.973877      0.444187    -2.265314
C      3.231799      1.163605    -1.950709
C      0.848285      1.309740    -3.346139
H      0.136965     -0.187923    -1.993680
C      3.111080      2.032399    -3.026787
H      4.179337      1.095934    -1.426262
C      1.913666      2.114635    -3.726948
H     -0.088160      1.351124    -3.894326
H      3.959798      2.641200    -3.323460
H      1.815068      2.792101    -4.569132
C     -0.147719      0.925722     1.052032
H     -0.101523      1.904787     1.531939
H      0.129855      1.108959     0.012871
C      0.910405      0.028560     1.734355
C      2.297051      0.045624     1.070390
H      1.048043      0.409055     2.753661
H      2.937120     -0.602706     1.681303
C      2.956096      1.407525     1.131027
O      2.407519      2.472254     1.229059
O      4.309196      1.303711     1.095430
H      4.657157      2.206612     1.145458
49
 -1042.12827885 -1041.75502100  5.96 7.60
C     -0.667805     -0.159403     2.837623
C     -1.542112     -1.386025     2.440602
H     -1.047423      0.354520     3.725042
H     -1.016337     -2.344817     2.521238
C     -2.854007     -1.471936     3.161639
C     -4.026551     -1.313925     2.544941
H     -2.825246     -1.678584     4.229840
H     -4.952865     -1.401449     3.106196
C     -4.113419     -1.027686     1.104248
C     -3.015655     -0.813686     0.378551
H     -5.097045     -0.988795     0.644940
H     -3.091839     -0.582974    -0.682332
C     -1.656339     -0.830371     1.000617
C     -1.074078      0.527750     1.501807
H     -0.942171     -1.323098     0.342514
H     -1.908485      1.209925     1.686238
C      0.829236     -0.417080     3.017010
H      0.984534     -1.367925     3.541300
H      1.236992      0.361239     3.672639
C      1.665574     -0.388194     1.731546
C      1.510845     -1.576973     0.815699
H      2.715951     -0.399725     2.060962
H      1.263650     -2.534164     1.271204
C      1.715485     -1.521920    -0.496436
C      2.123936     -0.279557    -1.250728
H      1.611443     -2.427087    -1.091422
H      3.091233     -0.499368    -1.721271
C      1.186164      0.039583    -2.416208
C      1.660319      0.788115    -3.495775
C     -0.121697     -0.439180    -2.476109
C      0.842944      1.081150    -4.579052
H      2.684400      1.147014    -3.491119
C     -0.942827     -0.150659    -3.560420
H     -0.505376     -1.054426    -1.671020
C     -0.466741      0.618080    -4.613857
H      1.235471      1.668493    -5.403657
H     -1.958945     -0.533121    -3.581182
H     -1.107472      0.845506    -5.459852
C     -0.024243      1.234904     0.635992
H     -0.159940      2.314549     0.723048
H     -0.233793      1.004312    -0.409833
C      1.456623      0.926297     0.963525
C      2.410932      0.877420    -0.243548
H      1.818247      1.726980     1.619705
H      3.399145      0.639982     0.166622
C      2.658129      2.186958    -0.962822
O      3.677943      2.436814    -1.557029
O      1.646549      3.072908    -0.887597
H      1.926668      3.849628    -1.394016
