49
 -1042.14204191 -1041.76942400  0.00 0.00
C     -0.515558     -0.689715     2.759064
C      0.294892      0.030904     3.878023
H     -0.997188     -1.560245     3.216093
H     -0.084113     -0.177409     4.885449
C      0.501117      1.511821     3.746340
C      1.715342      2.055380     3.635860
H     -0.378156      2.150512     3.792977
H      1.828291      3.135475     3.595089
C      2.930026      1.228649     3.561740
C      2.854823     -0.100036     3.472173
H      3.893364      1.730691     3.558899
H      3.760465     -0.696712     3.391189
C      1.535351     -0.805139     3.462076
C      0.821547     -1.137682     2.105393
H      1.599705     -1.717444     4.062466
H      0.847453     -2.197754     1.835115
C     -1.545528      0.035367     1.898773
H     -2.182717      0.671073     2.526050
H     -2.208770     -0.712913     1.445419
C     -0.930579      0.862161     0.763749
C     -1.990536      1.475212    -0.111321
H     -0.363348      1.688773     1.215945
H     -2.862151      1.891797     0.391346
C     -1.909856      1.547982    -1.433394
C     -0.746234      1.019272    -2.233046
H     -2.723205      1.992846    -2.002346
H     -0.441284      1.802406    -2.936644
C     -1.149738     -0.190508    -3.070928
C     -2.008574     -1.171239    -2.576807
C     -0.650787     -0.335348    -4.364290
C     -2.352190     -2.270802    -3.352638
H     -2.426067     -1.064812    -1.580872
C     -0.989282     -1.434778    -5.143092
H      0.011692      0.424609    -4.769847
C     -1.841031     -2.409004    -4.637923
H     -3.024292     -3.023256    -2.951390
H     -0.588616     -1.527271    -6.147890
H     -2.109457     -3.269279    -5.242947
C      1.257489     -0.299995     0.898872
H      2.041007     -0.837698     0.361385
H      1.687641      0.651545     1.227553
C      0.073132      0.006515    -0.024427
C      0.472335      0.750584    -1.300783
H     -0.403605     -0.938120    -0.313052
H      0.875074      1.732237    -1.021734
C      1.550758      0.040354    -2.092480
O      1.820517     -1.130293    -2.050693
O      2.202092      0.894889    -2.918821
H      2.848749      0.366397    -3.409670
49
 -1042.14100115 -1041.76803600  0.65 0.87
C     -1.651158      1.689578     1.628131
C     -1.051413      2.993505     2.234935
H     -2.587125      1.484787     2.157913
H     -1.805552      3.635171     2.705569
C     -0.192524      3.844974     1.345841
C      1.091997      4.087972     1.615999
H     -0.663963      4.309818     0.482773
H      1.668084      4.751920     0.977002
C      1.770454      3.474670     2.768408
C      1.163067      2.550394     3.514039
H      2.790657      3.778605     2.984914
H      1.685921      2.087106     4.347571
C     -0.237345      2.112577     3.220982
C     -0.505879      0.876441     2.294001
H     -0.786743      1.980080     4.157786
H     -0.848191     -0.016710     2.825698
C     -1.897167      1.521171     0.131803
H     -2.365886      2.424110    -0.278616
H     -2.619287      0.706932    -0.012511
C     -0.636322      1.173294    -0.668361
C     -0.952748      0.915432    -2.117194
H      0.039338      2.040002    -0.631450
H     -1.674176      1.581533    -2.588107
C     -0.395582     -0.048874    -2.837933
C      0.625370     -1.017338    -2.297581
H     -0.685137     -0.183705    -3.877684
H      1.466877     -1.046247    -2.999635
C      0.067320     -2.435738    -2.226247
C     -1.246671     -2.686343    -1.833651
C      0.881962     -3.518702    -2.553864
C     -1.731442     -3.986082    -1.764946
H     -1.901386     -1.854719    -1.593879
C      0.401348     -4.820396    -2.484514
H      1.908011     -3.341413    -2.864601
C     -0.908560     -5.058787    -2.087892
H     -2.758243     -4.161944    -1.458933
H      1.052532     -5.649538    -2.743914
H     -1.288315     -6.074179    -2.033605
C      0.635984      0.493771     1.347239
H      1.257309     -0.264010     1.830349
H      1.282800      1.356262     1.158882
C      0.100009      0.000712    -0.002032
C      1.197515     -0.501984    -0.944557
H     -0.612361     -0.814794     0.171857
H      1.858617      0.337935    -1.186046
C      2.110522     -1.570518    -0.379280
O      3.253455     -1.733276    -0.726361
O      1.519728     -2.375331     0.527332
H      2.174296     -3.048125     0.764367
49
 -1042.13369794 -1041.76153200  5.24 4.95
C     -1.391915      1.747772     0.823666
C     -1.751202      2.841067     1.886537
H     -2.241418      1.137133     0.501660
H     -2.705582      2.587615     2.357857
C     -1.751344      4.284538     1.490668
C     -0.683246      5.060471     1.679045
H     -2.645488      4.688612     1.021647
H     -0.698645      6.103941     1.377251
C      0.550543      4.527101     2.277870
C      0.620931      3.281092     2.749489
H      1.418539      5.179075     2.327017
H      1.548928      2.915790     3.183755
C     -0.560158      2.355169     2.762064
C     -0.473234      1.072574     1.879759
H     -0.821677      2.142567     3.804695
H     -1.007725      0.255539     2.374224
C     -0.600451      2.234987    -0.386381
H      0.051597      3.052969    -0.069114
H     -1.278530      2.661591    -1.133142
C      0.281295      1.129377    -1.018376
C     -0.185533      0.606113    -2.351209
H      1.265294      1.589267    -1.197725
H     -0.775240      1.263578    -2.986751
C      0.149553     -0.600540    -2.793641
C      0.977491     -1.599045    -2.017996
H     -0.193009     -0.932637    -3.771230
H      1.834762     -1.876421    -2.642382
C      0.186477     -2.881660    -1.772393
C     -1.164055     -2.855681    -1.428626
C      0.818097     -4.118973    -1.887730
C     -1.861828     -4.034618    -1.199116
H     -1.681645     -1.904709    -1.357599
C      0.125194     -5.300675    -1.657242
H      1.868714     -4.158659    -2.162180
C     -1.219306     -5.262134    -1.309386
H     -2.914046     -3.993451    -0.934638
H      0.637547     -6.253119    -1.752657
H     -1.765327     -6.182773    -1.129277
C      0.846962      0.531443     1.329617
H      1.258172     -0.224733     2.000740
H      1.590909      1.330284     1.227085
C      0.524663     -0.043804    -0.054470
C      1.553572     -0.967057    -0.707515
H     -0.402411     -0.619645     0.050310
H      2.434526     -0.381522    -0.994520
C      2.041516     -2.068441     0.209291
O      1.468417     -2.509233     1.169553
O      3.244899     -2.546959    -0.189528
H      3.474409     -3.263171     0.421027
49
 -1042.13134728 -1041.76075300  6.71 5.44
C      0.247494     -1.359433     3.170962
C      1.107658     -0.331913     3.964851
H      0.110674     -2.232703     3.817268
H      1.036388     -0.459350     5.051450
C      0.926526      1.123197     3.644545
C      1.921081      1.877625     3.171786
H     -0.042155      1.570284     3.856522
H      1.767183      2.939732     3.000742
C      3.243415      1.310836     2.863987
C      3.459789     -0.004237     2.919747
H      4.036820      1.990750     2.566861
H      4.435471     -0.411202     2.664490
C      2.373772     -0.954094     3.316168
C      1.455637     -1.615398     2.228967
H      2.785163     -1.738860     3.957878
H      1.662563     -2.674997     2.050555
C     -1.101457     -1.003880     2.555368
H     -1.710132     -0.445671     3.277435
H     -1.640774     -1.939595     2.357230
C     -1.024141     -0.232534     1.234186
C     -2.374820     -0.120635     0.573022
H     -0.648505      0.780532     1.437372
H     -3.265840     -0.359220     1.149060
C     -2.461406      0.269772    -0.691318
C     -1.201946      0.670235    -1.422055
H     -3.418845      0.375880    -1.191126
H     -0.873787      1.617857    -0.974284
C     -1.389074      0.941922    -2.903628
C     -2.221941      0.148784    -3.692489
C     -0.699906      1.990460    -3.510103
C     -2.366711      0.403578    -5.049854
H     -2.752243     -0.684700    -3.243691
C     -0.840199      2.247931    -4.868301
H     -0.045151      2.617590    -2.910227
C     -1.676942      1.454584    -5.643478
H     -3.020544     -0.224250    -5.647847
H     -0.295041      3.070674    -5.320983
H     -1.790739      1.652359    -6.704629
C      1.374675     -0.877499     0.891035
H      2.102828     -1.307559     0.193726
H      1.651427      0.173624     1.016622
C     -0.030728     -0.925830     0.285632
C     -0.033349     -0.335697    -1.148919
H     -0.358034     -1.969649     0.212504
H      0.897093      0.211374    -1.323977
C     -0.073109     -1.462629    -2.162599
O     -0.841069     -2.389718    -2.149378
O      0.862256     -1.320287    -3.127526
H      0.740678     -2.058042    -3.743555
49
 -1042.13263925 -1041.76003400  5.90 5.89
C     -1.741924     -1.152960     1.066297
C     -2.398420     -2.462341     1.621957
H     -2.415307     -0.531753     0.467323
H     -3.303471     -2.684349     1.048496
C     -2.686794     -2.580613     3.085960
C     -1.827667     -3.164871     3.922011
H     -3.614971     -2.157056     3.462526
H     -2.050031     -3.233840     4.983108
C     -0.549229     -3.712645     3.441670
C     -0.240325     -3.741492     2.144102
H      0.150907     -4.097996     4.177999
H      0.714440     -4.150826     1.821430
C     -1.189846     -3.277957     1.078150
C     -0.767890     -2.035489     0.236580
H     -1.466413     -4.140774     0.461868
H     -1.139071     -2.144960    -0.787128
C     -1.000987     -0.296569     2.089618
H     -0.569562     -0.955464     2.847619
H     -1.707304      0.351425     2.619248
C      0.144610      0.540406     1.466545
C     -0.098959      2.024671     1.389932
H      1.014919      0.407429     2.126997
H     -0.765057      2.476408     2.122185
C      0.517412      2.798467     0.503718
C      1.477383      2.298246    -0.550643
H      0.327297      3.869518     0.497281
H      2.418844      2.847770    -0.433393
C      0.960679      2.621450    -1.950630
C      1.853011      3.023327    -2.943769
C     -0.392112      2.523992    -2.272110
C      1.409110      3.313661    -4.227697
H      2.911245      3.104457    -2.711332
C     -0.840207      2.815085    -3.554259
H     -1.105388      2.232450    -1.508050
C      0.058895      3.209279    -4.538043
H      2.121045      3.624371    -4.986255
H     -1.898065      2.735117    -3.785236
H     -0.292150      3.436427    -5.539705
C      0.670198     -1.519320     0.183229
H      1.204103     -1.956025    -0.663472
H      1.221185     -1.788185     1.091740
C      0.568390      0.008244     0.087804
C      1.814002      0.785258    -0.342954
H     -0.222679      0.233227    -0.637297
H      2.564670      0.731617     0.452185
C      2.519251      0.264472    -1.577389
O      3.702664      0.376323    -1.776665
O      1.696041     -0.316755    -2.474074
H      2.243520     -0.550858    -3.237471
49
 -1042.12998353 -1041.75977800  7.57 6.05
C      1.298013      2.916355     1.253287
C      2.532543      3.236186     0.359294
H      1.301397      3.637647     2.077175
H      2.869615      4.275767     0.446921
C      2.447093      2.885712    -1.097678
C      3.277045      2.010382    -1.669375
H      1.708358      3.409016    -1.700656
H      3.219433      1.820658    -2.737880
C      4.284456      1.275439    -0.888629
C      4.319044      1.356477     0.442422
H      4.988293      0.644251    -1.423668
H      5.052962      0.787168     1.008067
C      3.348886      2.212550     1.193918
C      1.999100      1.612596     1.723635
H      3.861439      2.715231     2.019444
H      1.970139      1.457781     2.806488
C     -0.120395      2.830036     0.700351
H     -0.318080      3.679097     0.034534
H     -0.818499      2.931099     1.541930
C     -0.457778      1.518203    -0.016554
C     -1.932911      1.413921    -0.313759
H      0.096027      1.478568    -0.965373
H     -2.546650      2.309249    -0.246478
C     -2.464232      0.248742    -0.657904
C     -1.566287     -0.951572    -0.834434
H     -3.518587      0.157014    -0.898371
H     -1.005801     -0.770308    -1.761735
C     -2.285750     -2.273937    -1.036481
C     -1.711156     -3.250987    -1.848401
C     -3.499264     -2.559841    -0.412950
C     -2.332302     -4.478408    -2.040864
H     -0.763064     -3.046993    -2.339559
C     -4.126658     -3.784232    -0.604831
H     -3.953294     -1.820456     0.237659
C     -3.545579     -4.748915    -1.419428
H     -1.867354     -5.224288    -2.678416
H     -5.072706     -3.986730    -0.111522
H     -4.035153     -5.706287    -1.567474
C      1.512800      0.349036     1.011511
H      1.845537     -0.536169     1.565087
H      1.959261      0.276111     0.015609
C     -0.008765      0.324815     0.843850
C     -0.473139     -1.045099     0.279274
H     -0.478317      0.467248     1.825036
H      0.384126     -1.559972    -0.161122
C     -0.897076     -1.945308     1.419964
O     -0.356766     -2.975267     1.730152
O     -1.963384     -1.464891     2.099529
H     -2.156616     -2.106692     2.798401
49
 -1042.12844035 -1041.75699600  8.54 7.80
C     -1.027587      2.254068     2.381929
C      0.074082      3.348962     2.262738
H     -1.661592      2.525019     3.232569
H     -0.222978      4.307688     2.703858
C      0.651365      3.610896     0.902189
C      1.944294      3.423424     0.628328
H     -0.013554      4.011488     0.140228
H      2.336119      3.672719    -0.354194
C      2.875957      2.877676     1.627590
C      2.438141      2.425791     2.803766
H      3.931322      2.831653     1.374298
H      3.135271      2.002411     3.523127
C      0.986080      2.471230     3.161973
C      0.053504      1.245705     2.863208
H      0.873424      2.755090     4.212526
H     -0.237313      0.678112     3.752429
C     -1.929863      1.868148     1.213226
H     -2.304441      2.769493     0.712779
H     -2.810467      1.351003     1.616613
C     -1.272679      0.939134     0.190503
C     -2.241772      0.419472    -0.841797
H     -0.478482      1.496789    -0.324917
H     -3.254040      0.814047    -0.874153
C     -1.842212     -0.541782    -1.663346
C     -0.413707     -1.028508    -1.534231
H     -2.502353     -0.997673    -2.391697
H      0.233677     -0.167029    -1.757159
C     -0.021740     -2.100936    -2.539908
C     -0.412866     -1.944645    -3.871446
C      0.766185     -3.204161    -2.218690
C     -0.052026     -2.867381    -4.842570
H     -1.003785     -1.078429    -4.154634
C      1.129291     -4.133757    -3.188333
H      1.113184     -3.363250    -1.203377
C      0.719770     -3.973770    -4.503887
H     -0.372923     -2.720474    -5.869531
H      1.738790     -4.987347    -2.906795
H      1.002475     -4.699033    -5.260156
C      0.546904      0.278938     1.783484
H      1.074959     -0.556245     2.255721
H      1.267449      0.772896     1.124493
C     -0.604342     -0.242768     0.921937
C     -0.140277     -1.370561    -0.058414
H     -1.370184     -0.668721     1.585184
H      0.932204     -1.528009     0.084472
C     -0.835719     -2.649320     0.351845
O     -1.807664     -3.135064    -0.158922
O     -0.239408     -3.201755     1.438117
H     -0.750469     -3.991234     1.669027
49
 -1042.12176518 -1041.75075900  12.72 11.71
C      1.980087      1.217113     1.840009
C      3.155389      2.246605     1.954889
H      1.906885      0.525509     2.685252
H      3.880068      1.888551     2.692362
C      2.848625      3.689527     2.208667
C      2.744634      4.568042     1.210794
H      2.689767      4.007349     3.236520
H      2.512108      5.609529     1.414087
C      2.920573      4.154714    -0.190275
C      3.287910      2.914214    -0.516027
H      2.741019      4.892534    -0.967586
H      3.407992      2.639751    -1.561744
C      3.604828      1.869435     0.513829
C      2.669097      0.623436     0.578237
H      4.664651      1.605869     0.425015
H      3.256503     -0.258583     0.851330
C      0.611110      1.807734     1.514596
H      0.752877      2.665937     0.852116
H      0.140939      2.201578     2.422213
C     -0.331134      0.808598     0.811335
C     -1.355078      0.105462     1.668171
H     -0.869018      1.371938     0.035528
H     -1.407392      0.295979     2.736721
C     -2.115333     -0.809779     1.076110
C     -1.976815     -0.979283    -0.424938
H     -2.813865     -1.423121     1.631337
H     -2.258172     -0.009650    -0.862023
C     -2.925022     -1.985323    -1.066176
C     -4.190422     -2.208186    -0.521998
C     -2.606069     -2.643286    -2.254913
C     -5.089865     -3.080635    -1.120611
H     -4.492019     -1.683273     0.378002
C     -3.502078     -3.519071    -2.856833
H     -1.648835     -2.479717    -2.738021
C     -4.748012     -3.748478    -2.290218
H     -6.065663     -3.235510    -0.669997
H     -3.220726     -4.021031    -3.777874
H     -5.448639     -4.432548    -2.758262
C      1.713596      0.248539    -0.555050
H      2.171885     -0.481099    -1.229840
H      1.446259      1.125193    -1.156273
C      0.455819     -0.317302     0.107973
C     -0.480275     -1.156671    -0.806497
H      0.793414     -0.986456     0.909804
H     -0.335083     -0.849612    -1.845972
C     -0.043406     -2.599566    -0.676914
O     -0.393119     -3.362585     0.182488
O      0.853907     -2.946673    -1.631946
H      1.106096     -3.865697    -1.457397
