49
 -1042.14288527 -1041.77205700  0.00 0.00
C      1.047766     -0.169122     3.076228
C      1.993486      1.046385     3.333290
H      0.962557     -0.776247     3.982979
H      2.164782      1.235037     4.398778
C      1.635345      2.343762     2.669074
C      2.396837      2.901807     1.726064
H      0.732735      2.847602     3.007470
H      2.119398      3.861390     1.298274
C      3.622956      2.253473     1.235176
C      3.973807      1.035193     1.647791
H      4.232159      2.789324     0.512794
H      4.873087      0.562935     1.258639
C      3.144043      0.269544     2.630903
C      2.099346     -0.769760     2.104027
H      3.796421     -0.210144     3.366521
H      2.367451     -1.812925     2.299493
C     -0.334310      0.008001     2.454484
H     -0.372394      0.901851     1.823129
H     -1.101410      0.133172     3.226415
C     -0.631213     -1.235250     1.599195
C     -2.086793     -1.363269     1.238861
H     -0.394292     -2.103884     2.230826
H     -2.782636     -1.431178     2.073542
C     -2.559006     -1.437764     0.000704
C     -1.680627     -1.359637    -1.221959
H     -3.624746     -1.574653    -0.165436
H     -1.432034     -2.379844    -1.541311
C     -2.366636     -0.663519    -2.384258
C     -2.258395     -1.170073    -3.677440
C     -3.089176      0.513030    -2.184851
C     -2.860672     -0.519815    -4.748072
H     -1.687627     -2.078214    -3.848188
C     -3.692552      1.165146    -3.251958
H     -3.183315      0.919188    -1.181587
C     -3.580571      0.649800    -4.538746
H     -2.766444     -0.929876    -5.749015
H     -4.252019      2.079575    -3.079143
H     -4.051764      1.158842    -5.373609
C      1.657376     -0.598088     0.657294
H      2.425985     -0.978500    -0.023403
H      1.561483      0.471530     0.442768
C      0.306764     -1.289984     0.370395
C     -0.360345     -0.653362    -0.862095
H      0.488681     -2.343297     0.127410
H     -0.569066      0.402001    -0.658686
C      0.585323     -0.733692    -2.041180
O      0.959701     -1.760512    -2.549648
O      0.988184      0.476144    -2.481431
H      1.582367      0.317878    -3.230510
49
 -1042.14119854 -1041.77023300  1.06 1.14
C      1.204392      0.185442     3.019948
C      2.062527      1.484247     3.141206
H      1.211214     -0.358858     3.969575
H      2.270692      1.761829     4.180351
C      1.570355      2.699403     2.410564
C      2.237232      3.243028     1.390628
H      0.648796      3.157129     2.763081
H      1.863716      4.145277     0.913984
C      3.484643      2.654872     0.878082
C      3.951279      1.500036     1.353638
H      4.012422      3.180886     0.087615
H      4.864420      1.069708     0.948465
C      3.235006      0.747755     2.431720
C      2.251468     -0.403059     2.035560
H      3.959192      0.373871     3.161539
H      2.610586     -1.406266     2.286842
C     -0.215493      0.213631     2.462386
H     -0.353343      1.054041     1.774386
H     -0.951920      0.337123     3.263921
C     -0.457204     -1.106603     1.711655
C     -1.915296     -1.361402     1.437611
H     -0.127342     -1.908463     2.388413
H     -2.564549     -1.411290     2.310175
C     -2.439547     -1.561013     0.235014
C     -1.624871     -1.520226    -1.034573
H     -3.499564     -1.780904     0.134240
H     -1.320837     -2.545488    -1.279229
C     -2.416163     -0.977851    -2.211039
C     -2.385784     -1.622719    -3.444904
C     -3.165457      0.191767    -2.086329
C     -3.088349     -1.114670    -4.531698
H     -1.802063     -2.532082    -3.557372
C     -3.869086      0.702655    -3.168768
H     -3.201356      0.704538    -1.129138
C     -3.832717      0.050214    -4.396691
H     -3.053582     -1.632068    -5.485621
H     -4.448057      1.614076    -3.054300
H     -4.382326      0.449509    -5.243250
C      1.726904     -0.369703     0.606865
H      2.490906     -0.734197    -0.087782
H      1.533965      0.670038     0.323673
C      0.424633     -1.183118     0.441237
C     -0.352897     -0.687348    -0.791802
H      0.677690     -2.236235     0.272429
H     -0.644111      0.355500    -0.633311
C      0.534076     -0.673013    -2.017489
O      0.896251      0.308453    -2.610616
O      0.912866     -1.918300    -2.395535
H      1.476681     -1.810147    -3.175358
49
 -1042.13922470 -1041.76771800  2.30 2.72
C     -0.571031     -1.606198     2.231818
C     -0.860797     -0.760248     3.514873
H     -0.440366     -2.677229     2.418226
H     -0.574236     -1.332005     4.402785
C     -2.224868     -0.175809     3.711720
C     -2.507102      1.078605     3.358995
H     -2.997482     -0.811491     4.138205
H     -3.505464      1.481649     3.503643
C     -1.488776      1.945660     2.746029
C     -0.223153      1.549748     2.600401
H     -1.795871      2.929612     2.401998
H      0.500374      2.210555     2.127047
C      0.271320      0.223597     3.102095
C      0.746561     -0.808600     2.030328
H      1.017834      0.403835     3.883392
H      1.610588     -1.368844     2.400960
C     -1.508252     -1.382314     1.054343
H     -1.732132     -0.313762     0.971826
H     -2.467416     -1.886098     1.216689
C     -0.880880     -1.871306    -0.272108
C     -1.663128     -1.295913    -1.423664
H     -0.991549     -2.959868    -0.320625
H     -2.739046     -1.467311    -1.394142
C     -1.158395     -0.589869    -2.428249
C      0.312792     -0.314592    -2.591157
H     -1.821209     -0.186417    -3.190474
H      0.565351     -0.465920    -3.646857
C      0.716810      1.121377    -2.276878
C      1.986155      1.561869    -2.654165
C     -0.130808      2.018718    -1.634406
C      2.405024      2.857480    -2.383998
H      2.654434      0.878735    -3.172478
C      0.285398      3.317333    -1.358793
H     -1.124864      1.697368    -1.341538
C      1.554230      3.741615    -1.730040
H      3.396854      3.178339    -2.687504
H     -0.389725      4.000277    -0.852308
H      1.876710      4.755325    -1.515004
C      0.985839     -0.377085     0.588229
H      2.025458     -0.066495     0.436595
H      0.364679      0.485496     0.344725
C      0.635057     -1.549523    -0.337290
C      1.131076     -1.348666    -1.774520
H      1.167227     -2.426801     0.048147
H      2.173721     -1.012491    -1.745005
C      1.156301     -2.670571    -2.521448
O      0.698562     -3.717333    -2.144686
O      1.793532     -2.559721    -3.710930
H      1.764669     -3.434713    -4.124802
49
 -1042.13979891 -1041.76741200  1.94 2.91
C      0.372632      0.143639     3.227244
C      1.137621      1.507014     3.311896
H      0.070958     -0.276557     4.192227
H      1.582316      1.607455     4.306875
C      0.443088      2.776307     2.932485
C      0.526511      3.270150     1.696054
H     -0.151195      3.285620     3.687471
H      0.010713      4.189314     1.432760
C      1.293642      2.577104     0.649539
C      2.022907      1.490301     0.913358
H      1.249788      2.971294    -0.362716
H      2.571144      1.000804     0.114235
C      2.179810      0.950317     2.303276
C      1.651562     -0.483876     2.620180
H      3.225430      1.089367     2.603114
H      2.274911     -0.863828     3.436110
C     -0.803956      0.118099     2.261817
H     -0.646813      0.822866     1.441938
H     -1.716299      0.446404     2.772715
C     -1.014547     -1.286051     1.675525
C     -2.299443     -1.328030     0.891337
H     -1.103018     -1.990886     2.515074
H     -3.225873     -1.287806     1.461354
C     -2.355971     -1.376946    -0.433418
C     -1.140344     -1.453898    -1.321072
H     -3.320632     -1.394499    -0.935060
H     -1.015357     -2.504398    -1.615297
C     -1.295204     -0.636554    -2.590816
C     -0.908043     -1.160916    -3.821817
C     -1.795504      0.664868    -2.545204
C     -1.016932     -0.404090    -4.982877
H     -0.513796     -2.172229    -3.872198
C     -1.906619      1.423443    -3.702748
H     -2.106504      1.084117    -1.592210
C     -1.516868      0.890774    -4.926984
H     -0.711317     -0.829772    -5.933831
H     -2.298837      2.434596    -3.649953
H     -1.603367      1.483253    -5.832308
C      1.520184     -1.605809     1.584132
H      1.657596     -2.550725     2.120877
H      2.358231     -1.554293     0.880200
C      0.181638     -1.732069     0.818038
C      0.144941     -1.046345    -0.559692
H      0.048465     -2.799682     0.603369
H      0.184624      0.039785    -0.463252
C      1.320616     -1.502807    -1.399067
O      1.558484     -2.651135    -1.676554
O      2.091744     -0.487687    -1.845369
H      2.786880     -0.886002    -2.390756
49
 -1042.13856077 -1041.76685000  2.71 3.27
C      2.392574      0.826465     1.164242
C      3.108127      1.975845     0.380872
H      3.018371      0.338059     1.918368
H      4.191227      1.890223     0.510995
C      2.683112      3.391794     0.618259
C      1.804010      4.002752    -0.176584
H      3.098702      3.913265     1.477511
H      1.503531      5.028313     0.018476
C      1.202439      3.308359    -1.325857
C      1.571679      2.074386    -1.673043
H      0.436576      3.829095    -1.894260
H      1.103956      1.586608    -2.525627
C      2.657422      1.324281    -0.958439
C      2.239614      0.043115    -0.169148
H      3.474758      1.140549    -1.664379
H      3.011706     -0.726579    -0.265627
C      1.026094      1.165789     1.742114
H      0.479612      1.782225     1.021322
H      1.124085      1.769934     2.650495
C      0.190020     -0.102949     2.039891
C     -1.267732      0.277092     2.126526
H      0.490749     -0.485914     3.025017
H     -1.497962      1.130110     2.764011
C     -2.257949     -0.324680     1.481975
C     -2.076603     -1.538032     0.609705
H     -3.273886      0.047682     1.592101
H     -2.847705     -2.259322     0.905399
C     -2.294603     -1.269176    -0.874986
C     -2.404967      0.016181    -1.398303
C     -2.410725     -2.350032    -1.751222
C     -2.611526      0.217476    -2.759260
H     -2.327851      0.870844    -0.734364
C     -2.616407     -2.154684    -3.109854
H     -2.346887     -3.362995    -1.361927
C     -2.715347     -0.865438    -3.621325
H     -2.691403      1.229264    -3.144943
H     -2.704604     -3.011850    -3.770480
H     -2.876414     -0.706961    -4.682832
C      0.862557     -0.588281    -0.351174
H      0.875912     -1.348068    -1.139946
H      0.129122      0.162103    -0.651437
C      0.459147     -1.209253     0.992323
C     -0.717193     -2.201725     0.895673
H      1.324646     -1.787579     1.332526
H     -0.480066     -2.915853     0.098894
C     -0.805338     -3.030201     2.165985
O     -1.735430     -3.079884     2.926413
O      0.317245     -3.761675     2.363499
H      0.183607     -4.260681     3.182425
49
 -1042.13899143 -1041.76645200  2.44 3.52
C      0.391515     -0.171476     3.217139
C      1.056571      1.227521     3.447102
H      0.133413     -0.715606     4.131534
H      1.508653      1.248593     4.443690
C      0.267502      2.477053     3.217937
C      0.299169      3.111073     2.044621
H     -0.351047      2.854223     4.028933
H     -0.284233      4.014386     1.889553
C      1.098275      2.596895     0.921937
C      1.905461      1.541420     1.053867
H      1.011271      3.098963    -0.038497
H      2.472614      1.184965     0.198845
C      2.120995      0.864439     2.375142
C      1.706181     -0.630999     2.540707
H      3.158056      1.048349     2.680737
H      2.367188     -1.045664     3.308812
C     -0.792381     -0.177260     2.259138
H     -0.701821      0.630313     1.529302
H     -1.720917      0.014752     2.808829
C     -0.903111     -1.513979     1.509721
C     -2.182938     -1.556301     0.716305
H     -0.938302     -2.318341     2.259016
H     -3.109117     -1.654077     1.279674
C     -2.238334     -1.450371    -0.605191
C     -1.022720     -1.324288    -1.490137
H     -3.200219     -1.480475    -1.111682
H     -0.831694     -2.315968    -1.919220
C     -1.244523     -0.361456    -2.642861
C     -0.845320     -0.698776    -3.933488
C     -1.821616      0.889804    -2.426890
C     -1.015786      0.191511    -4.987665
H     -0.394089     -1.670274    -4.117212
C     -1.995155      1.781581    -3.476835
H     -2.143178      1.164247    -1.425953
C     -1.591724      1.435155    -4.762176
H     -0.699089     -0.089749    -5.987378
H     -2.446887      2.751481    -3.291881
H     -1.726942      2.132451    -5.582929
C      1.644822     -1.647757     1.396579
H      1.830793     -2.632515     1.840178
H      2.482768     -1.477861     0.711559
C      0.318438     -1.770507     0.610471
C      0.224857     -0.919371    -0.669964
H      0.252658     -2.812670     0.273915
H      0.164600      0.141404    -0.426667
C      1.460057     -1.072512    -1.531990
O      2.217447     -0.192228    -1.848988
O      1.651737     -2.350098    -1.939284
H      2.456107     -2.350003    -2.478357
49
 -1042.13737646 -1041.76394500  3.46 5.09
C      2.574096     -0.543475    -1.576776
C      3.111965      0.746463    -0.888739
H      3.227600     -0.736120    -2.434107
H      4.172806      0.928325    -1.097998
C      2.892525      0.913345     0.585583
C      2.182432      1.925054     1.088638
H      3.384351      0.209924     1.253007
H      2.099443      2.051780     2.165082
C      1.484835      2.888336     0.222313
C      1.445742      2.725497    -1.100935
H      0.972156      3.723359     0.691067
H      0.900483      3.430549    -1.724155
C      2.129419      1.571954    -1.763488
C      1.336387      0.254660    -2.065036
H      2.623591      1.910102    -2.679357
H      1.085783      0.103859    -3.120085
C      2.363241     -1.871505    -0.847036
H      3.169935     -2.036462    -0.122673
H      2.467644     -2.667494    -1.593415
C      0.998687     -2.082244    -0.160467
C      0.930739     -1.622110     1.275354
H      0.847610     -3.170936    -0.127594
H      1.843578     -1.684771     1.863888
C     -0.188691     -1.219259     1.863293
C     -1.532740     -1.141374     1.184804
H     -0.170658     -0.945397     2.916017
H     -2.205914     -1.786982     1.762314
C     -2.158392      0.249669     1.225531
C     -3.500836      0.399530     0.870190
C     -1.455124      1.381862     1.625607
C     -4.117236      1.642544     0.897336
H     -4.076103     -0.473917     0.573415
C     -2.068922      2.629992     1.656087
H     -0.415036      1.289272     1.913965
C     -3.400121      2.767831     1.289080
H     -5.162383      1.732156     0.616851
H     -1.499232      3.499568     1.970132
H     -3.877436      3.742225     1.312869
C      0.104434      0.028870    -1.196222
H     -0.771039      0.500158    -1.655868
H      0.240589      0.511592    -0.229431
C     -0.148413     -1.463701    -0.972703
C     -1.491815     -1.713006    -0.251341
H     -0.195598     -1.958220    -1.950764
H     -2.282611     -1.252393    -0.851611
C     -1.784043     -3.200038    -0.242184
O     -1.756006     -3.931747     0.712422
O     -2.086489     -3.652729    -1.481613
H     -2.245229     -4.604596    -1.401248
49
 -1042.13665870 -1041.76325300  3.91 5.52
C     -0.795474     -1.347252     2.729552
C     -1.411471      0.040175     3.080817
H     -0.693286     -1.891443     3.674333
H     -1.971068      0.029130     4.023645
C     -2.252282      0.731159     2.048947
C     -1.921545      1.920374     1.541714
H     -3.188080      0.258758     1.760422
H     -2.588457      2.421276     0.844568
C     -0.656558      2.586566     1.889942
C      0.259039      1.978941     2.645978
H     -0.470830      3.578598     1.488212
H      1.201628      2.473645     2.868821
C      0.030927      0.605334     3.192335
C      0.551615     -0.648413     2.409549
H      0.383560      0.554740     4.226938
H      1.429837     -1.130516     2.851100
C     -1.392292     -2.309723     1.701690
H     -2.487052     -2.302496     1.768253
H     -1.084956     -3.320497     1.994283
C     -0.961915     -2.124783     0.232755
C     -1.831699     -1.189923    -0.567711
H     -1.069063     -3.110273    -0.235126
H     -2.884771     -1.130624    -0.299967
C     -1.396863     -0.497360    -1.613632
C      0.016280     -0.528426    -2.136754
H     -2.092961      0.125514    -2.171436
H     -0.044411     -0.881787    -3.172874
C      0.663646      0.849677    -2.230769
C      1.817026      0.994775    -3.004708
C      0.149911      1.972256    -1.590449
C      2.448207      2.224943    -3.123372
H      2.220365      0.127748    -3.522040
C      0.779086      3.207778    -1.708136
H     -0.748684      1.881792    -0.992316
C      1.931003      3.339359    -2.471152
H      3.343748      2.315504    -3.730695
H      0.363108      4.071525    -1.198113
H      2.420909      4.303611    -2.561460
C      0.768188     -0.431605     0.916356
H      1.784953     -0.064751     0.738232
H      0.094704      0.345076     0.555171
C      0.513035     -1.713369     0.117076
C      0.917451     -1.532619    -1.352380
H      1.128554     -2.521185     0.531804
H      1.941542     -1.142823    -1.381840
C      1.005591     -2.862285    -2.077925
O      0.714089     -3.946397    -1.645112
O      1.513709     -2.712694    -3.325917
H      1.552008     -3.597008    -3.718609
