49
 -1042.14274172 -1041.77009800  0.00 0.00
C     -1.156057      2.161640     2.098537
C      0.147493      2.691853     2.792567
H     -2.077586      2.627154     2.461651
H     -0.120443      3.150544     3.749241
C      1.091316      3.583569     2.048941
C      2.127453      3.085600     1.372335
H      0.906611      4.655171     2.057486
H      2.801524      3.743595     0.831067
C      2.372546      1.635926     1.312554
C      1.654713      0.772427     2.033931
H      3.158849      1.275862     0.654175
H      1.849945     -0.295283     1.961682
C      0.600952      1.222477     3.004362
C     -0.865039      0.770837     2.731140
H      0.943267      0.986164     4.018828
H     -1.373044      0.705711     3.698788
C     -1.148592      2.171916     0.567075
H     -0.124491      2.205401     0.185024
H     -1.644653      3.079115     0.204004
C     -1.825449      0.923206    -0.010586
C     -1.987566      1.012149    -1.503634
H     -2.835857      0.848965     0.425519
H     -2.335613      1.962960    -1.904320
C     -1.744370      0.011682    -2.340535
C     -1.274324     -1.353377    -1.908429
H     -1.863952      0.160378    -3.411273
H     -1.906734     -2.097895    -2.405156
C      0.155510     -1.613487    -2.370259
C      1.140650     -0.629164    -2.298234
C      0.503591     -2.864632    -2.875181
C      2.439367     -0.893007    -2.713624
H      0.886480      0.358340    -1.926849
C      1.801910     -3.134134    -3.290236
H     -0.253309     -3.641190    -2.945819
C      2.776103     -2.147520    -3.209383
H      3.192415     -0.113140    -2.651874
H      2.049921     -4.116396    -3.680630
H      3.791504     -2.352303    -3.533716
C     -1.176136     -0.493936     1.935942
H     -2.215683     -0.785060     2.142521
H     -0.541581     -1.310627     2.288732
C     -1.025971     -0.314517     0.421063
C     -1.476597     -1.539433    -0.375488
H      0.028390     -0.138251     0.191475
H     -2.550912     -1.695559    -0.217122
C     -0.770838     -2.807074     0.060583
O      0.288477     -2.879611     0.625624
O     -1.470741     -3.911995    -0.291109
H     -0.943446     -4.675060    -0.011391
49
 -1042.14272378 -1041.76981400  0.01 0.18
C     -0.487440      3.144080     0.334979
C      0.781719      3.689787    -0.411086
H     -1.149342      3.926817     0.717928
H      0.955178      4.726486    -0.107000
C      0.892018      3.572429    -1.899017
C      1.487458      2.524070    -2.469981
H      0.457658      4.357325    -2.513696
H      1.552564      2.447323    -3.551762
C      2.047222      1.430805    -1.659349
C      2.107464      1.505757    -0.328097
H      2.409186      0.542594    -2.171290
H      2.520762      0.680372     0.247534
C      1.660493      2.723832     0.427950
C      0.465078      2.550847     1.413456
H      2.539932      3.184600     0.893001
H      0.592473      3.281072     2.219090
C     -1.315333      2.104547    -0.428928
H     -0.725406      1.658009    -1.234177
H     -2.169547      2.596469    -0.907621
C     -1.794241      0.966717     0.481723
C     -2.725551      0.032400    -0.241629
H     -2.356985      1.409242     1.320330
H     -3.515189      0.490169    -0.835575
C     -2.640115     -1.290929    -0.194318
C     -1.599183     -2.035846     0.601335
H     -3.333593     -1.899632    -0.769898
H     -2.104242     -2.839817     1.148276
C     -0.573576     -2.697784    -0.313596
C     -0.072804     -2.053355    -1.445112
C     -0.107097     -3.977115    -0.018879
C      0.875345     -2.669515    -2.251471
H     -0.437255     -1.065738    -1.706726
C      0.842611     -4.597070    -0.821727
H     -0.492725     -4.498273     0.853365
C      1.339355     -3.943136    -1.941659
H      1.250724     -2.154237    -3.130735
H      1.191117     -5.594429    -0.571700
H      2.080090     -4.423471    -2.573119
C      0.141170      1.194190     2.032092
H     -0.519633      1.351589     2.895978
H      1.060006      0.740610     2.411440
C     -0.562254      0.249742     1.052924
C     -0.958272     -1.093778     1.662910
H      0.121426      0.040058     0.226878
H     -1.712900     -0.935697     2.443376
C      0.212258     -1.808678     2.306187
O      1.378587     -1.631165     2.071199
O     -0.203047     -2.739769     3.197635
H      0.593837     -3.172501     3.538565
49
 -1042.14136003 -1041.76865100  0.87 0.91
C     -0.093438      3.021461     1.110336
C      1.098892      3.704335     0.353696
H     -0.639515      3.689344     1.783774
H      1.398871      4.603171     0.901004
C      0.991210      4.011181    -1.106847
C      1.417527      3.147656    -2.029873
H      0.540427      4.954573    -1.405626
H      1.327510      3.379720    -3.087351
C      1.993044      1.848286    -1.648762
C      2.231819      1.533352    -0.374089
H      2.217485      1.136097    -2.438434
H      2.649257      0.561051    -0.122102
C      2.001351      2.504061     0.747896
C      0.948313      2.118834     1.829674
H      2.974692      2.777588     1.172216
H      1.251385      2.600849     2.764809
C     -1.088056      2.255108     0.234257
H     -0.633727      1.984710    -0.722996
H     -1.943425      2.898973     0.000653
C     -1.560362      0.964616     0.913950
C     -2.679947      0.305088     0.154582
H     -1.950365      1.226350     1.911906
H     -3.461738      0.957328    -0.231444
C     -2.770044     -1.002156    -0.054335
C     -1.763203     -2.004923     0.445465
H     -3.600304     -1.402050    -0.631925
H     -2.310215     -2.809456     0.950815
C     -1.004905     -2.650210    -0.709337
C     -0.698228     -4.009237    -0.663927
C     -0.597958     -1.913590    -1.821114
C      0.003373     -4.618515    -1.696794
H     -1.009091     -4.599167     0.194024
C      0.102995     -2.519025    -2.856334
H     -0.843737     -0.858390    -1.883642
C      0.407791     -3.873964    -2.797654
H      0.231494     -5.678545    -1.640696
H      0.410789     -1.929437    -3.714587
H      0.955042     -4.346421    -3.607264
C      0.595799      0.664363     2.130830
H      0.103102      0.626678     3.112241
H      1.514868      0.079040     2.219754
C     -0.353965      0.033111     1.104884
C     -0.838472     -1.359170     1.518231
H      0.162291     -0.053402     0.144564
H     -1.437812     -1.266235     2.430985
C      0.249972     -2.355710     1.861688
O      0.107606     -3.270466     2.633353
O      1.403103     -2.168907     1.183922
H      1.988499     -2.897949     1.435619
49
 -1042.13479253 -1041.76205200  4.99 5.05
C      0.648943     -1.852972    -2.479044
C     -0.785670     -2.421069    -2.769412
H      1.415901     -2.204266    -3.176030
H     -0.693944     -3.323792    -3.380920
C     -1.849793     -1.532383    -3.333181
C     -2.695786     -0.873668    -2.539472
H     -1.910453     -1.418410    -4.412946
H     -3.457801     -0.224657    -2.961990
C     -2.607427     -0.981968    -1.074492
C     -1.776245     -1.843838    -0.484711
H     -3.234544     -0.330963    -0.470607
H     -1.726644     -1.899263     0.600582
C     -0.916210     -2.793328    -1.268172
C      0.628358     -2.631809    -1.131322
H     -1.262018     -3.815307    -1.073485
H      1.078678     -3.618262    -1.281506
C      0.748441     -0.329777    -2.337684
H     -0.234187      0.103684    -2.132164
H      1.087060      0.104867    -3.284878
C      1.685244      0.080238    -1.194455
C      1.899966      1.568902    -1.155514
H      2.668049     -0.388347    -1.369069
H      2.134172      2.054508    -2.101636
C      1.823186      2.305900    -0.054731
C      1.515009      1.738671     1.308137
H      1.959371      3.383266    -0.112039
H      2.205222      2.203007     2.025038
C      0.103943      2.104061     1.760030
C     -0.141569      2.386966     3.101693
C     -0.963531      2.156027     0.863890
C     -1.419233      2.703990     3.545074
H      0.675038      2.349281     3.818021
C     -2.242520      2.474959     1.302566
H     -0.792695      1.958407    -0.188767
C     -2.476264      2.748351     2.645338
H     -1.586380      2.919056     4.595930
H     -3.060974      2.515528     0.589856
H     -3.476084      2.997703     2.986352
C      1.249631     -1.996496     0.109251
H      2.318544     -2.250744     0.135336
H      0.796441     -2.428273     1.004739
C      1.115118     -0.471552     0.120540
C      1.785025      0.205015     1.314792
H      0.052969     -0.219722     0.164774
H      2.873734      0.070886     1.226418
C      1.336301     -0.379170     2.648631
O      0.295194     -0.935883     2.844325
O      2.200665     -0.196940     3.681591
H      3.009762      0.229593     3.375321
49
 -1042.13306990 -1041.76131500  6.07 5.51
C     -0.099441      2.548912     1.884613
C      0.798665      3.718519     1.380829
H     -0.426553      2.760975     2.907691
H      0.661788      4.644557     1.950488
C      0.741756      4.045159    -0.083199
C      1.796969      3.909590    -0.888824
H     -0.191934      4.443552    -0.473289
H      1.726026      4.199067    -1.933846
C      3.078445      3.372401    -0.405085
C      3.202194      2.893702     0.833322
H      3.920415      3.357922    -1.091342
H      4.149506      2.477133     1.168076
C      2.050422      2.889936     1.788549
C      1.142728      1.617088     1.913181
H      2.398088      3.181183     2.784164
H      1.274729      1.074462     2.854735
C     -1.283717      2.005280     1.087549
H     -1.181884      2.225030     0.019300
H     -2.223409      2.457535     1.422514
C     -1.292041      0.486494     1.286781
C     -2.584790     -0.211079     0.965229
H     -1.100564      0.311732     2.358901
H     -3.514335      0.332164     1.124509
C     -2.628332     -1.472377     0.553596
C     -1.413373     -2.336502     0.315216
H     -3.586689     -1.943929     0.348317
H     -1.526094     -3.243067     0.921033
C     -1.361663     -2.791893    -1.140443
C     -1.664296     -1.926447    -2.190396
C     -1.000894     -4.103037    -1.444753
C     -1.598833     -2.358486    -3.508893
H     -1.970350     -0.908017    -1.975590
C     -0.933158     -4.540217    -2.761645
H     -0.767409     -4.792856    -0.638361
C     -1.230989     -3.666963    -3.800133
H     -1.839146     -1.669306    -4.312660
H     -0.649800     -5.566359    -2.975075
H     -1.180629     -4.004037    -4.830658
C      1.190472      0.648299     0.731166
H      2.034755     -0.032956     0.859501
H      1.410949      1.208932    -0.179322
C     -0.131798     -0.131129     0.492994
C     -0.102176     -1.631791     0.794119
H     -0.372927     -0.027622    -0.569783
H     -0.034996     -1.782045     1.878171
C      1.089135     -2.332562     0.175834
O      1.716921     -1.964721    -0.780637
O      1.382073     -3.484421     0.827418
H      2.126183     -3.887812     0.356140
49
 -1042.12987587 -1041.75895200  8.07 6.99
C     -0.202099      2.203277     2.557671
C      0.853156      2.178772     3.718390
H     -1.010079      2.928201     2.697069
H      0.400096      2.603366     4.619434
C      2.217517      2.757642     3.513812
C      3.236335      2.002105     3.100779
H      2.361488      3.820085     3.695253
H      4.220672      2.435984     2.949421
C      3.054378      0.571128     2.811247
C      1.905361     -0.056521     3.069474
H      3.886606      0.027736     2.371753
H      1.800249     -1.114735     2.840093
C      0.750670      0.629290     3.740498
C     -0.584613      0.748623     2.947561
H      0.620922      0.189273     4.736333
H     -1.393999      0.780528     3.684165
C      0.375412      2.340993     1.147911
H      1.416235      2.005833     1.126907
H      0.385096      3.397741     0.858205
C     -0.397343      1.517572     0.114069
C      0.134424      1.722456    -1.282768
H     -1.456539      1.822677     0.135330
H      0.775877      2.578289    -1.480592
C     -0.187403      0.875312    -2.251639
C     -1.153826     -0.245544    -1.957891
H      0.166597      1.013868    -3.267879
H     -2.135325      0.229245    -1.824275
C     -1.327270     -1.260055    -3.074049
C     -2.575610     -1.844742    -3.282940
C     -0.267138     -1.651929    -3.890821
C     -2.765950     -2.791391    -4.281430
H     -3.413420     -1.551419    -2.655537
C     -0.452546     -2.596845    -4.892035
H      0.715877     -1.219601    -3.737854
C     -1.702629     -3.170959    -5.091622
H     -3.747623     -3.231922    -4.427071
H      0.386041     -2.888506    -5.517344
H     -1.846480     -3.909926    -5.873522
C     -0.978743     -0.228371     1.845138
H     -2.063132     -0.148727     1.693966
H     -0.789798     -1.260618     2.165112
C     -0.298404      0.030135     0.496716
C     -0.855266     -0.932887    -0.587620
H      0.772726     -0.166277     0.602158
H     -1.793695     -1.370544    -0.239313
C      0.068582     -2.122892    -0.739782
O     -0.232505     -3.266936    -0.517187
O      1.311530     -1.777555    -1.146689
H      1.815585     -2.601225    -1.218604
49
 -1042.12863773 -1041.75674400  8.85 8.38
C      2.960077      1.431120     0.324611
C      4.259615      0.893102    -0.370497
H      3.129998      2.269701     1.006941
H      5.129594      1.195498     0.220443
C      4.511785      1.164131    -1.820217
C      4.125452      0.304050    -2.763814
H      5.008057      2.091959    -2.094583
H      4.308892      0.515776    -3.813424
C      3.416215     -0.937603    -2.417677
C      3.245726     -1.318114    -1.149895
H      3.022466     -1.545245    -3.228124
H      2.708200     -2.236872    -0.924579
C      3.828538     -0.551201     0.002171
C      2.838405      0.055120     1.040442
H      4.613118     -1.163749     0.461928
H      3.364775      0.106898     1.998962
C      1.794375      1.764093    -0.611581
H      1.897999      1.228142    -1.559328
H      1.814559      2.832287    -0.854742
C      0.444232      1.384376    -0.001093
C     -0.733242      1.786082    -0.854480
H      0.352502      1.880260     0.979048
H     -0.576542      2.434745    -1.712888
C     -1.935097      1.309475    -0.556370
C     -2.056102      0.412192     0.657577
H     -2.809472      1.519394    -1.160875
H     -1.754848      1.016997     1.526697
C     -3.471506     -0.056828     0.959082
C     -3.782800     -1.350850     1.368734
C     -4.511213      0.872594     0.884851
C     -5.091982     -1.712185     1.670739
H     -3.009964     -2.107161     1.457321
C     -5.818156      0.518320     1.185485
H     -4.289593      1.894867     0.592465
C     -6.117197     -0.782405     1.577399
H     -5.306209     -2.730321     1.981930
H     -6.606602      1.261765     1.115866
H     -7.138582     -1.064476     1.812110
C      1.453244     -0.536378     1.281004
H      1.089987     -0.180691     2.254644
H      1.514950     -1.628605     1.352886
C      0.424787     -0.141728     0.219660
C     -0.997333     -0.698441     0.552575
H      0.735634     -0.578260    -0.735810
H     -0.942856     -1.242589     1.499797
C     -1.354535     -1.708890    -0.515600
O     -2.107992     -1.550573    -1.436646
O     -0.668110     -2.866190    -0.336654
H     -0.913251     -3.453588    -1.066492
49
 -1042.12736371 -1041.75545200  9.65 9.19
C     -0.567789      2.704955     1.904083
C      0.536678      3.294957     2.850900
H     -1.537054      3.207547     1.977954
H      0.050388      3.840229     3.665571
C      1.659881      4.111300     2.293577
C      2.818617      3.549493     1.945350
H      1.508396      5.180214     2.163539
H      3.624495      4.152547     1.536615
C      3.030540      2.099113     2.072891
C      2.131125      1.307721     2.661083
H      3.945405      1.677718     1.664768
H      2.308414      0.235912     2.728179
C      0.884925      1.850175     3.300224
C     -0.482518      1.383509     2.720273
H      0.964425      1.709426     4.384645
H     -1.212390      1.421997     3.535336
C     -0.172409      2.569052     0.430474
H      0.916424      2.550675     0.328201
H     -0.520592      3.447855    -0.123615
C     -0.718601      1.289600    -0.209257
C     -0.364504      1.177105    -1.671562
H     -1.815590      1.278731    -0.104582
H      0.041920      2.042857    -2.189146
C     -0.513854      0.013983    -2.291585
C     -1.103345     -1.142772    -1.513202
H     -0.221718     -0.127397    -3.325487
H     -2.128420     -0.840859    -1.247230
C     -1.258323     -2.430402    -2.310496
C     -1.731144     -2.354065    -3.622938
C     -1.016828     -3.695325    -1.777357
C     -1.929000     -3.495473    -4.386013
H     -1.956414     -1.382205    -4.051735
C     -1.213989     -4.843064    -2.539592
H     -0.673976     -3.813768    -0.755154
C     -1.665134     -4.750494    -3.847958
H     -2.293806     -3.404594    -5.404784
H     -1.013020     -5.815638    -2.100225
H     -1.816892     -5.646011    -4.442069
C     -0.639579      0.054644     1.991400
H     -1.706945     -0.203092     1.969885
H     -0.137395     -0.746931     2.545374
C     -0.133263      0.083139     0.548685
C     -0.375754     -1.287188    -0.160963
H      0.948597      0.256569     0.568666
H     -0.980200     -1.914878     0.498396
C      0.970046     -1.975856    -0.225687
O      1.448505     -2.596404     0.691591
O      1.629732     -1.786911    -1.383411
H      2.481935     -2.237700    -1.293613
