49
 -1042.14389014 -1041.77160600  0.00 0.00
C     -1.795496     -1.241535    -1.018504
C     -2.422898     -1.393711    -2.435195
H     -2.540993     -1.591678    -0.296681
H     -3.208103     -2.157640    -2.479538
C     -1.486766     -1.606841    -3.589058
C     -1.405771     -0.747221    -4.607163
H     -0.897669     -2.521126    -3.600879
H     -0.755730     -0.960406    -5.451590
C     -2.175715      0.506484    -4.624760
C     -2.881798      0.897001    -3.562183
H     -2.134937      1.121512    -5.519229
H     -3.423843      1.839660    -3.579853
C     -2.936980      0.066275    -2.319132
C     -1.911762      0.301593    -1.153308
H     -3.950367      0.082610    -1.906790
H     -2.332663      0.801065    -0.276931
C     -0.449142     -1.853815    -0.645857
H     -0.369478     -2.870622    -1.049005
H     -0.414434     -1.966386     0.443943
C      0.791002     -1.042788    -1.076356
C      2.008728     -1.559798    -0.354036
H      0.934281     -1.173534    -2.155406
H      2.454970     -2.486119    -0.710298
C      2.526900     -0.952309     0.706754
C      2.002998      0.338290     1.291330
H      3.400507     -1.375895     1.197203
H      2.702998      1.134282     1.006972
C      1.940053      0.306868     2.808727
C      2.317783      1.421865     3.554322
C      1.465627     -0.819175     3.481530
C      2.226599      1.412554     4.941229
H      2.680146      2.308054     3.041197
C      1.375160     -0.832242     4.867218
H      1.172984     -1.697180     2.912609
C      1.755285      0.285071     5.602432
H      2.526085      2.289939     5.506437
H      1.006279     -1.717859     5.375720
H      1.684258      0.275617     6.685486
C     -0.607277      0.980728    -1.571233
H     -0.702840      2.066233    -1.458987
H     -0.420174      0.806674    -2.633544
C      0.620914      0.459889    -0.818267
C      0.627670      0.720995     0.698308
H      1.503063      0.970454    -1.225899
H     -0.159204      0.136722     1.181699
C      0.356783      2.184696     0.969748
O      1.124636      3.085443     0.742319
O     -0.869953      2.404854     1.490121
H     -0.951716      3.362448     1.614377
49
 -1042.14209574 -1041.77004900  1.13 0.98
C     -1.957395     -1.014775    -1.032043
C     -2.761201     -2.339838    -0.884761
H     -2.198082     -0.599977    -2.016566
H     -3.660359     -2.371000    -1.511394
C     -3.133761     -2.774653     0.502876
C     -2.707832     -3.926959     1.025243
H     -3.811922     -2.138987     1.067804
H     -3.040580     -4.235063     2.012903
C     -1.780282     -4.809383     0.300159
C     -1.223203     -4.428145    -0.850735
H     -1.539357     -5.773215     0.739529
H     -0.518012     -5.079812    -1.361381
C     -1.535874     -3.098525    -1.461376
C     -0.648262     -1.843522    -1.142542
H     -1.626010     -3.200615    -2.546993
H      0.016046     -1.538999    -1.955695
C     -2.038707      0.114195    -0.008933
H     -3.076873      0.261277     0.312561
H     -1.750674      1.046888    -0.506770
C     -1.145012     -0.050413     1.239006
C     -1.031747      1.271360     1.955814
H     -1.614029     -0.780474     1.909300
H     -1.876983      1.593769     2.560686
C      0.030400      2.060816     1.848706
C      1.266997      1.724001     1.045923
H      0.053032      3.009762     2.379957
H      2.048465      1.449633     1.765295
C      1.780587      2.907793     0.244947
C      0.903311      3.719072    -0.474068
C      3.145200      3.181619     0.184903
C      1.378911      4.780286    -1.233038
H     -0.163940      3.520676    -0.431203
C      3.625515      4.241920    -0.575149
H      3.840608      2.557245     0.739311
C      2.743114      5.044833    -1.286915
H      0.682171      5.403776    -1.785069
H      4.692329      4.441054    -0.609036
H      3.114861      5.874009    -1.880588
C      0.131653     -1.928559     0.169054
H      1.120413     -2.360931    -0.018532
H     -0.367823     -2.612058     0.859762
C      0.251530     -0.582760     0.890811
C      1.026537      0.504591     0.126892
H      0.784431     -0.754558     1.834741
H      0.453457      0.819342    -0.747910
C      2.324048     -0.038461    -0.428675
O      2.561332     -0.224742    -1.593618
O      3.225403     -0.335157     0.538436
H      4.007573     -0.686336     0.088377
49
 -1042.14008601 -1041.76831500  2.39 2.07
C     -1.048243      1.247487     1.214605
C     -1.207310      2.311304     2.350529
H     -1.232755      0.217538     1.535641
H     -1.167489      1.814206     3.324477
C     -2.373470      3.249565     2.312512
C     -2.270210      4.475554     1.798445
H     -3.326186      2.897792     2.701747
H     -3.131230      5.137501     1.773562
C     -1.000975      4.963529     1.236292
C      0.117119      4.237787     1.291399
H     -0.993256      5.942896     0.765554
H      1.038507      4.626596     0.863061
C      0.181241      2.901984     1.972690
C      0.448023      1.646287     1.080500
H      0.879348      2.975956     2.813794
H      1.101163      0.948290     1.609598
C     -1.794920      1.542125    -0.078297
H     -1.736749      2.615725    -0.281459
H     -2.859543      1.308351     0.028444
C     -1.206829      0.774706    -1.288560
C     -1.888544     -0.550462    -1.508787
H     -1.442434      1.382121    -2.173130
H     -2.973914     -0.520196    -1.586780
C     -1.268277     -1.712729    -1.667216
C      0.231470     -1.860274    -1.581382
H     -1.845129     -2.608955    -1.882923
H      0.646138     -1.757617    -2.592056
C      0.652713     -3.215432    -1.042054
C      0.047961     -3.746538     0.096834
C      1.670749     -3.940416    -1.656795
C      0.447387     -4.975069     0.605640
H     -0.749685     -3.193787     0.585473
C      2.074917     -5.170383    -1.150118
H      2.154463     -3.535625    -2.541299
C      1.463793     -5.691917    -0.016872
H     -0.036286     -5.375084     1.491673
H      2.869384     -5.721735    -1.643815
H      1.776490     -6.652328     0.380654
C      0.913033      1.799265    -0.366204
H      2.006490      1.819394    -0.423536
H      0.564900      2.750210    -0.781887
C      0.339744      0.658953    -1.225385
C      0.790714     -0.721944    -0.707532
H      0.725578      0.756053    -2.246414
H      0.429168     -0.872226     0.310565
C      2.298543     -0.787096    -0.613439
O      2.935040     -0.849252     0.406012
O      2.897847     -0.749218    -1.827753
H      3.851512     -0.792892    -1.666005
49
 -1042.13942208 -1041.76764400  2.80 2.49
C      2.447202      0.023677     2.128192
C      3.128168      1.421764     2.339744
H      2.884778     -0.744286     2.773077
H      4.015674      1.291019     2.967640
C      2.360767      2.596656     2.863490
C      1.988223      3.605825     2.074280
H      2.131459      2.622811     3.926540
H      1.459611      4.459720     2.488784
C      2.231994      3.578320     0.622625
C      2.885941      2.571154     0.042676
H      1.835319      4.392410     0.022178
H      3.024116      2.559547    -1.036506
C      3.514895      1.465115     0.836105
C      2.999503     -0.000654     0.674519
H      4.597364      1.523432     0.674715
H      3.857854     -0.673400     0.588628
C      0.926902     -0.083710     2.201357
H      0.573170      0.256870     3.181299
H      0.646009     -1.142193     2.121956
C      0.218470      0.714057     1.099869
C     -1.267123      0.777907     1.333155
H      0.571145      1.742408     1.186605
H     -1.580030      1.194304     2.289379
C     -2.195332      0.414861     0.457466
C     -1.867070     -0.166409    -0.893955
H     -3.247403      0.546531     0.698730
H     -1.861214      0.645587    -1.632642
C     -2.883345     -1.198687    -1.350039
C     -3.314110     -1.232020    -2.674721
C     -3.375982     -2.155336    -0.462351
C     -4.219455     -2.195408    -3.103573
H     -2.929478     -0.500135    -3.379221
C     -4.282404     -3.117676    -0.886754
H     -3.050514     -2.140263     0.574015
C     -4.707656     -3.141248    -2.210527
H     -4.544261     -2.205730    -4.139611
H     -4.658179     -3.853099    -0.181748
H     -5.415748     -3.893650    -2.543134
C      1.998803     -0.393495    -0.404515
H      1.894999     -1.484197    -0.336801
H      2.423552     -0.193480    -1.394630
C      0.586120      0.233910    -0.319807
C     -0.450066     -0.770104    -0.861295
H      0.549724      1.107603    -0.977658
H     -0.462520     -1.662756    -0.227140
C     -0.062267     -1.185678    -2.264570
O      0.026171     -0.432874    -3.201929
O      0.181686     -2.508180    -2.378720
H      0.414535     -2.670820    -3.305177
49
 -1042.13778918 -1041.76615600  3.83 3.42
C      2.476438      0.729343     1.986109
C      2.905215      2.238672     1.952376
H      3.061266      0.156096     2.711636
H      3.819109      2.359667     2.543245
C      1.957220      3.332166     2.338655
C      1.389489      4.128505     1.431096
H      1.757537      3.483102     3.397277
H      0.730165      4.933479     1.743623
C      1.593086      3.918698    -0.011862
C      2.398782      2.960889    -0.472117
H      1.041768      4.550369    -0.703018
H      2.506484      2.806443    -1.543791
C      3.235864      2.114572     0.439824
C      2.983095      0.575388     0.523945
H      4.285984      2.330908     0.212701
H      3.943474      0.052773     0.490762
C      1.002213      0.375937     2.157640
H      0.621691      0.796928     3.095413
H      0.911599     -0.714332     2.248877
C      0.131330      0.862397     0.993041
C     -1.334372      0.701289     1.297457
H      0.295747      1.937512     0.910648
H     -1.687881      1.195713     2.200852
C     -2.207855      0.053476     0.537840
C     -1.819819     -0.657532    -0.734923
H     -3.258660      0.033055     0.816758
H     -1.987929      0.028529    -1.574649
C     -2.650279     -1.903903    -0.983826
C     -3.157279     -2.177158    -2.252126
C     -2.893885     -2.815016     0.043457
C     -3.894283     -3.331357    -2.491189
H     -2.971423     -1.478292    -3.063006
C     -3.631043     -3.968168    -0.190250
H     -2.507290     -2.614012     1.038652
C     -4.133963     -4.230873    -1.460048
H     -4.282572     -3.526340    -3.486240
H     -3.813726     -4.665410     0.621841
H     -4.709924     -5.132510    -1.643022
C      2.037371     -0.142918    -0.429304
H      2.126516     -1.212298    -0.201036
H      2.393343     -0.028981    -1.459599
C      0.539452      0.242271    -0.361135
C     -0.318566     -0.997000    -0.685614
H      0.332103      0.992174    -1.130549
H     -0.158431     -1.755138     0.087440
C      0.132152     -1.640542    -1.979075
O      0.621334     -2.734253    -2.086248
O     -0.062992     -0.836669    -3.052969
H      0.252343     -1.327650    -3.825570
49
 -1042.13680226 -1041.76523200  4.45 4.00
C     -1.918770     -0.103259    -1.451064
C     -2.394198      0.536289    -2.788610
H     -2.809836     -0.485566    -0.941930
H     -3.345052      0.126043    -3.148624
C     -1.421342      0.556109    -3.931666
C     -0.994009      1.694797    -4.481691
H     -1.102555     -0.399535    -4.341740
H     -0.331112      1.670527    -5.342510
C     -1.391037      3.008073    -3.949970
C     -2.085273      3.111674    -2.815501
H     -1.081954      3.896594    -4.493111
H     -2.347898      4.089984    -2.419850
C     -2.506912      1.896940    -2.050492
C     -1.597959      1.316875    -0.909636
H     -3.519401      2.037071    -1.660084
H     -1.970054      1.513148     0.101255
C     -0.839980     -1.180846    -1.394049
H     -0.986260     -1.906359    -2.203260
H     -0.972825     -1.748009    -0.465560
C      0.616980     -0.670852    -1.432752
C      1.546709     -1.775332    -0.997450
H      0.858595     -0.388014    -2.463939
H      1.762254     -2.566809    -1.712582
C      2.075950     -1.835910     0.218839
C      1.858554     -0.794530     1.291555
H      2.733721     -2.661375     0.481494
H      2.771769     -0.187898     1.349523
C      1.620376     -1.398991     2.664651
C      2.203782     -0.833370     3.796644
C      0.777256     -2.498802     2.824040
C      1.957194     -1.357919     5.059792
H      2.853193      0.030769     3.687771
C      0.531108     -3.027391     4.084583
H      0.318798     -2.951702     1.949271
C      1.121052     -2.457822     5.207531
H      2.421386     -0.905805     5.930938
H     -0.124126     -3.886552     4.191420
H      0.928847     -2.869854     6.193118
C     -0.119850      1.691681    -1.009203
H      0.072057      2.608529    -0.443611
H      0.136288      1.918763    -2.046736
C      0.823037      0.572900    -0.557606
C      0.708052      0.172082     0.918788
H      1.850491      0.926268    -0.706443
H     -0.247193     -0.340280     1.083056
C      0.800019      1.386905     1.832924
O      1.681317      2.197879     1.766196
O     -0.165040      1.517511     2.772382
H     -0.756147      0.755372     2.753902
49
 -1042.13728674 -1041.76470400  4.14 4.33
C     -0.619221     -0.279806    -2.542954
C     -1.829106      0.388065    -3.289387
H     -0.335548     -1.263583    -2.927995
H     -2.412227     -0.392476    -3.787542
C     -1.607574      1.533914    -4.225586
C     -1.676830      2.797333    -3.802391
H     -1.373411      1.316186    -5.264888
H     -1.508372      3.620733    -4.490693
C     -1.950925      3.113880    -2.391922
C     -2.270532      2.165062    -1.509587
H     -1.881332      4.151732    -2.077128
H     -2.461902      2.429425    -0.471818
C     -2.452381      0.729683    -1.909083
C     -1.504656     -0.326730    -1.269146
H     -3.514024      0.475633    -1.805541
H     -2.049406     -1.276330    -1.254597
C      0.617928      0.605813    -2.400330
H      0.335422      1.658395    -2.478362
H      1.308413      0.411761    -3.229382
C      1.344968      0.434445    -1.062241
C      1.983192     -0.916061    -0.861690
H      2.158127      1.174631    -1.052837
H      2.324545     -1.451111    -1.746059
C      2.189429     -1.443227     0.339470
C      1.812588     -0.781813     1.642642
H      2.695737     -2.402541     0.424990
H      2.754954     -0.609747     2.176712
C      0.983110     -1.675158     2.561616
C      0.832029     -1.307179     3.900692
C      0.382313     -2.855897     2.133777
C      0.091996     -2.083398     4.780639
H      1.306552     -0.397543     4.260635
C     -0.359251     -3.639167     3.012816
H      0.493278     -3.172802     1.102074
C     -0.511016     -3.255937     4.337845
H     -0.011014     -1.774836     5.816563
H     -0.820399     -4.554594     2.654809
H     -1.090682     -3.867229     5.022016
C     -0.847777     -0.139474     0.093324
H     -0.568180     -1.128651     0.459719
H     -1.576987      0.253626     0.812259
C      0.399605      0.753667     0.102880
C      1.156986      0.609889     1.444323
H      0.081895      1.796666     0.003995
H      0.443498      0.794126     2.253756
C      2.194830      1.710463     1.541882
O      3.387721      1.585026     1.442320
O      1.618631      2.917197     1.748051
H      2.335003      3.567936     1.781355
49
 -1042.13685609 -1041.76409200  4.41 4.72
C      0.039163     -1.317455     2.348321
C      0.417229     -0.747131     3.761997
H      0.294522     -2.370992     2.201334
H      1.203979     -1.370806     4.197295
C     -0.642743     -0.478719     4.783155
C     -1.218052      0.720648     4.885515
H     -0.948997     -1.290884     5.438140
H     -1.990938      0.901339     5.627230
C     -0.849591      1.821442     3.981523
C      0.159834      1.709691     3.115860
H     -1.429435      2.739353     4.029325
H      0.403785      2.538437     2.454725
C      1.036275      0.492438     3.061932
C      1.061842     -0.323435     1.736045
H      2.035741      0.772315     3.415654
H      2.039855     -0.812624     1.681468
C     -1.402219     -1.059072     1.912878
H     -1.808064     -0.199964     2.452295
H     -2.029742     -1.915693     2.185467
C     -1.548255     -0.759276     0.417501
C     -1.208996     -1.915222    -0.485367
H     -2.603578     -0.512574     0.249146
H     -1.362649     -2.922647    -0.101984
C     -0.784653     -1.753171    -1.733216
C     -0.584003     -0.416807    -2.405130
H     -0.594978     -2.625291    -2.355712
H     -1.312316     -0.375946    -3.224157
C      0.773951     -0.276695    -3.087764
C      0.945180      0.740776    -4.029189
C      1.846932     -1.122744    -2.824595
C      2.158083      0.915668    -4.679461
H      0.110873      1.400818    -4.251813
C      3.064487     -0.951935    -3.476700
H      1.734929     -1.927090    -2.105064
C      3.226240      0.068087    -4.403600
H      2.269575      1.713402    -5.407665
H      3.889090     -1.622571    -3.255369
H      4.176483      0.200949    -4.910887
C      0.766120      0.296644     0.375118
H      1.217609     -0.347364    -0.382852
H      1.273511      1.265397     0.287677
C     -0.721608      0.475082     0.036378
C     -0.879823      0.794488    -1.457361
H     -1.118982      1.323518     0.602152
H     -0.172830      1.590399    -1.719553
C     -2.241413      1.391675    -1.756974
O     -3.160569      1.521899    -0.992004
O     -2.322645      1.823151    -3.039997
H     -3.208207      2.198495    -3.151719
49
 -1042.13507963 -1041.76311900  5.53 5.33
C      2.101030     -1.629158    -1.008779
C      3.299810     -0.641375    -1.186415
H      2.322961     -2.568644    -1.523914
H      4.158782     -1.139114    -1.650302
C      3.804749      0.129852    -0.003943
C      3.732849      1.460224     0.063542
H      4.276527     -0.431598     0.799754
H      4.137299      1.988087     0.922357
C      3.066575      2.251385    -0.983952
C      2.442536      1.665789    -2.007154
H      3.061274      3.333168    -0.883000
H      1.923277      2.270571    -2.747686
C      2.456201      0.180475    -2.199354
C      1.200939     -0.704389    -1.876261
H      2.773512     -0.022229    -3.227542
H      0.813572     -1.195011    -2.774197
C      1.530783     -1.970813     0.360931
H      2.276924     -2.504252     0.961974
H      0.713553     -2.683536     0.189741
C      0.974381     -0.786073     1.185588
C     -0.015908     -1.326442     2.185349
H      1.799218     -0.357645     1.761187
H      0.344411     -2.147382     2.805512
C     -1.262916     -0.902821     2.348610
C     -1.854227      0.243999     1.572351
H     -1.906067     -1.387087     3.080089
H     -2.420085      0.864232     2.276492
C     -2.859066     -0.175248     0.505210
C     -3.015440     -1.496611     0.098387
C     -3.667904      0.799732    -0.080505
C     -3.947710     -1.834398    -0.877552
H     -2.398867     -2.268848     0.546471
C     -4.598478      0.467670    -1.055331
H     -3.569826      1.834578     0.237681
C     -4.740391     -0.854900    -1.460315
H     -4.051831     -2.871014    -1.183078
H     -5.216846      1.242921    -1.497388
H     -5.466522     -1.120291    -2.221990
C      0.025886     -0.109897    -1.103723
H     -0.757041     -0.871580    -1.050195
H     -0.399482      0.733942    -1.659801
C      0.411265      0.354479     0.303857
C     -0.715082      1.127914     1.002908
H      1.216898      1.074520     0.181816
H     -1.155058      1.833717     0.288871
C     -0.141146      1.991748     2.113278
O      0.996777      1.992232     2.505192
O     -1.072363      2.824228     2.635858
H     -0.629738      3.334894     3.329370
49
 -1042.13443365 -1041.76228700  5.93 5.85
C      0.587255     -0.755081     2.175254
C      1.665383      0.084620     2.933139
H      0.891358     -1.804926     2.137506
H      2.353902     -0.534433     3.518888
C      1.176979      1.206688     3.802150
C      1.442904      2.487547     3.538610
H      0.614194      0.941624     4.694408
H      1.101343      3.265955     4.215546
C      2.196530      2.892504     2.341768
C      2.562129      1.999792     1.421279
H      2.435214      3.945020     2.217631
H      3.099444      2.319917     0.531253
C      2.233296      0.546353     1.561436
C      0.960783     -0.032377     0.854394
H      3.104732     -0.052267     1.279546
H      1.193905     -0.699595     0.027098
C     -0.889206     -0.662659     2.539560
H     -1.114617      0.307257     2.995780
H     -1.161569     -1.429362     3.273760
C     -1.748209     -0.806376     1.272149
C     -1.475351     -2.109451     0.567079
H     -2.801280     -0.819586     1.573015
H     -1.422783     -2.995214     1.199605
C     -1.318855     -2.255026    -0.743418
C     -1.417662     -1.131997    -1.743718
H     -1.141006     -3.247790    -1.152015
H     -2.134945     -1.456738    -2.507642
C     -0.131401     -0.866902    -2.525250
C     -0.134349      0.098832    -3.535121
C      1.033513     -1.600780    -2.324860
C      0.999979      0.347121    -4.294597
H     -1.042804      0.657960    -3.740285
C      2.173453     -1.356360    -3.084916
H      1.057146     -2.374304    -1.564863
C      2.164946     -0.377635    -4.067867
H      0.972194      1.105281    -5.071319
H      3.072034     -1.937827    -2.903043
H      3.054579     -0.186561    -4.659258
C     -0.095956      0.984782     0.439983
H      0.186534      1.443396    -0.513715
H     -0.102854      1.796056     1.173976
C     -1.537137      0.416312     0.354920
C     -2.008448      0.143779    -1.081527
H     -2.198543      1.201836     0.734479
H     -1.739213      1.005149    -1.700816
C     -3.524736      0.086441    -1.143134
O     -4.285856      0.059641    -0.211797
O     -3.970048      0.092089    -2.423027
H     -4.936902      0.057295    -2.382019
49
 -1042.13423626 -1041.76199600  6.06 6.03
C      2.396528     -1.415835    -0.607997
C      3.504260     -0.352380    -0.321592
H      2.827059     -2.241724    -1.182200
H      4.492077     -0.720326    -0.621261
C      3.639688      0.232695     1.052207
C      3.441458      1.529235     1.295654
H      3.958368     -0.430273     1.853948
H      3.599574      1.929426     2.293265
C      2.966541      2.448440     0.248563
C      2.658705      2.011647    -0.973574
H      2.827470      3.493213     0.511058
H      2.269564      2.703167    -1.717976
C      2.862611      0.584774    -1.381612
C      1.656882     -0.408852    -1.534394
H      3.442259      0.580091    -2.310597
H      1.554945     -0.762743    -2.564540
C      1.547660     -2.022846     0.501610
H      2.183036     -2.572175     1.206229
H      0.907907     -2.775232     0.023763
C      0.628276     -1.055051     1.291346
C     -0.583374     -1.825668     1.760212
H      1.172515     -0.729510     2.186728
H     -0.378030     -2.781873     2.240798
C     -1.843743     -1.438743     1.617753
C     -2.251468     -0.120350     1.015468
H     -2.645405     -2.083268     1.971146
H     -2.996955      0.317979     1.689095
C     -2.930978     -0.242368    -0.344465
C     -2.957101     -1.432262    -1.066149
C     -3.572227      0.872801    -0.887093
C     -3.594365     -1.504004    -2.300783
H     -2.472020     -2.313386    -0.659071
C     -4.207905      0.806911    -2.119099
H     -3.580172      1.807688    -0.332517
C     -4.219177     -0.385361    -2.834568
H     -3.599702     -2.442318    -2.847087
H     -4.699353      1.688194    -2.519980
H     -4.714988     -0.442655    -3.798267
C      0.276383     -0.013019    -1.017248
H     -0.425079     -0.809387    -1.281382
H     -0.073493      0.891346    -1.528523
C      0.265109      0.217575     0.495245
C     -1.052184      0.844447     0.998982
H      1.037057      0.955496     0.697019
H     -1.276368      1.699376     0.350533
C     -0.854481      1.440165     2.383228
O     -1.470575      1.162570     3.378109
O      0.116598      2.384709     2.391508
H      0.166613      2.719663     3.298505
