49
 -1042.13701758 -1041.76568800  0.00 0.00
C      1.278126     -0.472917     2.983540
C      2.259727      0.681647     3.365929
H      1.240458     -1.215853     3.786705
H      2.512723      0.689140     4.431783
C      1.870731      2.072449     2.957708
C      2.558441      2.776582     2.056632
H      1.007484      2.515425     3.449231
H      2.260831      3.793661     1.816410
C      3.728127      2.215151     1.363065
C      4.096716      0.946765     1.544149
H      4.280520      2.859911     0.685310
H      4.952998      0.543656     1.007781
C      3.345464      0.031995     2.460927
C      2.257177     -0.918046     1.861964
H      4.053879     -0.551324     3.056576
H      2.530299     -1.978291     1.881019
C     -0.135848     -0.172684     2.492175
H     -0.197490      0.807461     2.016933
H     -0.843353     -0.165956     3.329064
C     -0.542514     -1.257324     1.479812
C     -2.012720     -1.241936     1.162729
H     -0.361061     -2.217180     1.987381
H     -2.684839     -1.228199     2.019375
C     -2.526706     -1.300224    -0.057833
C     -1.672224     -1.357437    -1.300801
H     -3.603895     -1.343296    -0.193957
H     -1.456163     -2.415402    -1.506864
C     -2.359113     -0.800260    -2.535541
C     -2.152993     -1.400074    -3.776844
C     -3.181439      0.324459    -2.466650
C     -2.749514     -0.891777    -4.924051
H     -1.518866     -2.280472    -3.846188
C     -3.779128      0.835556    -3.611544
H     -3.349215      0.807926    -1.509515
C     -3.565520      0.230223    -4.844710
H     -2.577198     -1.374453    -5.881274
H     -4.415089      1.712794    -3.540009
H     -4.033420      0.631181    -5.738249
C      1.709488     -0.541187     0.493594
H      2.428002     -0.785823    -0.296343
H      1.574586      0.544119     0.460366
C      0.369211     -1.247349     0.219491
C     -0.297433     -0.689769    -1.056110
H      0.589575     -2.295663    -0.019131
H      0.349807     -0.923489    -1.906615
C     -0.429533      0.822179    -1.033055
O     -0.974956      1.479544    -0.185159
O      0.153544      1.394762    -2.109985
H      0.012319      2.349803    -2.029223
49
 -1042.13534879 -1041.76222500  1.05 2.17
C      2.085695     -1.344695     1.328598
C      2.847707     -0.297228     2.205796
H      2.597196     -2.307688     1.228115
H      3.895979     -0.595172     2.303777
C      2.297940      0.065503     3.550553
C      1.514866      1.130896     3.722810
H      2.538310     -0.579005     4.393009
H      1.118773      1.372267     4.705141
C      1.147639      1.997428     2.591863
C      1.656708      1.815249     1.372076
H      0.436850      2.799786     2.771806
H      1.351598      2.465454     0.555298
C      2.674809      0.752324     1.071173
C      2.225544     -0.393588     0.108631
H      3.605780      1.237856     0.758839
H      3.053675     -0.695979    -0.539787
C      0.618977     -1.555220     1.671025
H      0.163679     -0.588826     1.908535
H      0.511576     -2.173938     2.568644
C     -0.158237     -2.196134     0.498913
C     -1.637707     -2.073834     0.775823
H      0.079230     -3.268935     0.488783
H     -1.970314     -2.479958     1.730636
C     -2.527103     -1.484718    -0.013846
C     -2.170826     -0.907899    -1.360476
H     -3.561345     -1.394172     0.310607
H     -2.965304     -1.165886    -2.069102
C     -2.106124      0.620584    -1.332058
C     -2.264295      1.350569    -2.511063
C     -1.923633      1.327872    -0.143101
C     -2.210047      2.739050    -2.506928
H     -2.431137      0.824180    -3.443816
C     -1.859745      2.716059    -0.136624
H     -1.820184      0.789938     0.792715
C     -1.998956      3.429609    -1.320420
H     -2.335361      3.282072    -3.438905
H     -1.699110      3.239063     0.801431
H     -1.950211      4.513959    -1.315781
C      0.946552     -0.236632    -0.703840
H      1.155007      0.213025    -1.677871
H      0.267421      0.437676    -0.187827
C      0.280042     -1.607503    -0.872948
C     -0.902253     -1.647849    -1.851835
H      1.043214     -2.277936    -1.282061
H     -1.211572     -2.702892    -1.906236
C     -0.575447     -1.346945    -3.302632
O     -1.398319     -1.167079    -4.165065
O      0.743413     -1.389700    -3.589113
H      0.819053     -1.241010    -4.543261
49
 -1042.13411066 -1041.76211300  1.82 2.24
C      1.497854     -0.872508     2.762242
C      2.486244      0.233739     3.254562
H      1.521919     -1.730571     3.441407
H      2.813698      0.080292     4.288613
C      2.047449      1.660367     3.098322
C      2.655271      2.513612     2.271821
H      1.216348      1.998456     3.713208
H      2.325104      3.547315     2.215511
C      3.779030      2.098144     1.418083
C      4.181307      0.827836     1.373556
H      4.268894      2.854583     0.811459
H      5.002097      0.535933     0.722081
C      3.515628     -0.237946     2.187627
C      2.404665     -1.116199     1.523956
H      4.275929     -0.884661     2.635494
H      2.696711     -2.159263     1.363910
C      0.051109     -0.532643     2.413505
H     -0.045416      0.506851     2.096385
H     -0.599500     -0.659913     3.286123
C     -0.413467     -1.462145     1.279198
C     -1.901905     -1.428237     1.064810
H     -0.190650     -2.481703     1.628635
H     -2.515232     -1.553976     1.956014
C     -2.495511     -1.317723    -0.115622
C     -1.728042     -1.186608    -1.408158
H     -3.579134     -1.366316    -0.185290
H     -1.532314     -2.205008    -1.773118
C     -2.494428     -0.470204    -2.506810
C     -2.328881     -0.859249    -3.835047
C     -3.348188      0.596364    -2.227518
C     -2.995902     -0.201987    -4.861097
H     -1.669977     -1.691535    -4.069489
C     -4.017534      1.256396    -3.250351
H     -3.489486      0.913283    -1.199387
C     -3.843439      0.860686    -4.571332
H     -2.853902     -0.521901    -5.888901
H     -4.677785      2.085284    -3.013493
H     -4.366224      1.377299    -5.370043
C      1.756347     -0.553803     0.268024
H      2.420620     -0.651733    -0.596996
H      1.598383      0.519979     0.407540
C      0.415753     -1.253140    -0.021136
C     -0.334373     -0.555120    -1.179131
H      0.642574     -2.254073    -0.409029
H      0.255666     -0.703126    -2.087920
C     -0.390323      0.956033    -1.056010
O      0.139660      1.716712    -1.824862
O     -1.090699      1.402530     0.008480
H     -1.065952      2.369592    -0.039828
49
 -1042.13405682 -1041.75953000  1.86 3.86
C      1.639397     -2.473881     1.163353
C      0.535640     -2.502891     2.261567
H      2.497922     -3.020719     1.566961
H      0.649308     -3.343361     2.956540
C     -0.899419     -2.446602     1.829436
C     -1.714364     -1.456589     2.199188
H     -1.284959     -3.277777     1.243810
H     -2.765071     -1.480715     1.921451
C     -1.228240     -0.301346     2.970298
C      0.069745     -0.143571     3.234290
H     -1.951425      0.442452     3.292389
H      0.415788      0.733533     3.776321
C      1.083197     -1.149092     2.789066
C      1.841090     -0.958701     1.430708
H      1.813038     -1.316354     3.587010
H      2.886743     -0.650095     1.531420
C      1.414397     -2.953778    -0.271864
H      0.757594     -3.832001    -0.278129
H      2.381855     -3.305558    -0.648049
C      0.899341     -1.908863    -1.282046
C     -0.603261     -1.836817    -1.418095
H      1.271304     -2.236089    -2.264751
H     -1.167161     -2.749837    -1.239247
C     -1.258550     -0.745788    -1.799771
C     -0.610201      0.576824    -2.134168
H     -2.341088     -0.783065    -1.900830
H     -0.881396      0.807650    -3.172482
C     -1.175252      1.732653    -1.307908
C     -1.093394      3.036197    -1.801644
C     -1.830512      1.532976    -0.095227
C     -1.607043      4.110156    -1.087355
H     -0.627489      3.214233    -2.765292
C     -2.349440      2.604468     0.622556
H     -1.946050      0.528804     0.291665
C     -2.232657      3.899475     0.135334
H     -1.524824      5.113962    -1.493241
H     -2.850805      2.422551     1.568381
H     -2.635937      4.735693     0.697689
C      1.128524     -0.073307     0.414931
H      1.394039      0.973128     0.575235
H      0.053094     -0.157709     0.556989
C      1.468352     -0.507241    -1.012925
C      0.940566      0.411825    -2.124404
H      2.561230     -0.546460    -1.113389
H      1.174314     -0.084327    -3.074677
C      1.681132      1.730548    -2.190621
O      2.302258      2.258653    -1.307491
O      1.607129      2.275101    -3.431712
H      2.111541      3.101651    -3.401267
49
 -1042.13045008 -1041.75936700  4.12 3.97
C      1.022232     -2.868924    -1.287413
C     -0.162710     -3.828831    -1.631444
H      1.978138     -3.360929    -1.493907
H      0.145746     -4.681652    -2.245919
C     -1.383607     -3.211998    -2.248799
C     -2.561858     -3.167953    -1.624009
H     -1.288718     -2.815492    -3.257164
H     -3.427949     -2.741278    -2.122530
C     -2.734677     -3.686398    -0.258052
C     -1.698178     -4.144737     0.443915
H     -3.732091     -3.674955     0.172331
H     -1.842000     -4.506466     1.459741
C     -0.310704     -4.158201    -0.118434
C      0.655702     -2.976329     0.219252
H      0.172969     -5.108937     0.124623
H      1.486050     -3.253557     0.877243
C      1.049171     -1.438666    -1.821069
H      0.042736     -1.063025    -2.005416
H      1.591174     -1.391893    -2.772588
C      1.746606     -0.539901    -0.786585
C      2.083540      0.824014    -1.322826
H      2.717037     -1.019842    -0.585790
H      2.562983      0.847376    -2.300219
C      1.902144      1.963404    -0.669095
C      1.276302      2.019553     0.703354
H      2.241919      2.900268    -1.101338
H      2.075365      1.876263     1.444863
C      0.610864      3.347659     1.022123
C      0.577370      3.805637     2.339492
C     -0.019233      4.106822     0.036429
C     -0.066338      4.993194     2.667153
H      1.067936      3.227696     3.119294
C     -0.662256      5.294232     0.360256
H     -0.022852      3.755264    -0.990290
C     -0.687533      5.743002     1.675892
H     -0.079468      5.334108     3.697899
H     -1.150120      5.870953    -0.419566
H     -1.190748      6.671418     1.926325
C      0.008734     -1.688157     0.705353
H     -0.316657     -1.785209     1.747461
H     -0.889058     -1.500111     0.111950
C      0.984228     -0.505833     0.570438
C      0.294466      0.833872     0.893627
H      1.741948     -0.617334     1.357366
H      0.009391      0.800976     1.953243
C     -0.985066      1.075396     0.094373
O     -1.147234      0.766783    -1.052047
O     -1.992996      1.683391     0.763744
H     -1.692700      1.995324     1.626762
49
 -1042.13118578 -1041.75928200  3.66 4.02
C      0.945203      2.916283     1.144480
C      2.439286      3.240605     0.822055
H      0.500936      3.729873     1.726800
H      2.689600      4.294902     0.982959
C      2.952520      2.827741    -0.526498
C      3.889189      1.890292    -0.683071
H      2.552576      3.346541    -1.394778
H      4.257228      1.647364    -1.676196
C      4.453565      1.159710     0.462426
C      3.987656      1.343663     1.698068
H      5.256394      0.452478     0.274057
H      4.404796      0.780481     2.530032
C      2.872553      2.301020     1.983806
C      1.408095      1.758083     2.070814
H      3.104729      2.875363     2.885516
H      0.983310      1.773255     3.079905
C     -0.024903      2.482164     0.048841
H      0.494780      1.997552    -0.781115
H     -0.549189      3.347656    -0.371335
C     -1.042615      1.502469     0.658995
C     -2.218164      1.259221    -0.247445
H     -1.440172      2.005608     1.553309
H     -2.688544      2.145039    -0.670707
C     -2.705709      0.064340    -0.545493
C     -2.113915     -1.211471     0.018264
H     -3.560373     -0.019230    -1.208448
H     -2.536259     -1.341375     1.027557
C     -2.533801     -2.455676    -0.755567
C     -3.898315     -2.660324    -0.983436
C     -1.646300     -3.429094    -1.207401
C     -4.358265     -3.777848    -1.661898
H     -4.613426     -1.931024    -0.613953
C     -2.104043     -4.553927    -1.889405
H     -0.581231     -3.338418    -1.032061
C     -3.458126     -4.732341    -2.126358
H     -5.423740     -3.906829    -1.827081
H     -1.388558     -5.294872    -2.233762
H     -3.812722     -5.608410    -2.659919
C      1.150414      0.414227     1.406170
H      1.547905     -0.406665     2.012232
H      1.701764      0.387173     0.462943
C     -0.352601      0.197808     1.150385
C     -0.603171     -1.032865     0.240238
H     -0.817650     -0.068343     2.107784
H     -0.209086     -1.907666     0.765705
C      0.171198     -0.929963    -1.063917
O     -0.109222     -0.266131    -2.023798
O      1.291713     -1.698911    -1.039029
H      1.734691     -1.569527    -1.890667
49
 -1042.13231626 -1041.75792100  2.95 4.87
C     -2.566057      0.855391    -1.624912
C     -3.274717      0.802356    -0.239255
H     -3.352187      0.780969    -2.383458
H     -4.324215      1.116439    -0.286066
C     -2.628467      1.506148     0.916835
C     -2.235301      0.856273     2.014150
H     -2.538076      2.588543     0.864373
H     -1.829826      1.406304     2.859585
C     -2.317290     -0.609391     2.116601
C     -2.683404     -1.355837     1.073450
H     -2.038999     -1.074955     3.057719
H     -2.707195     -2.439973     1.156897
C     -3.059471     -0.735398    -0.234353
C     -1.987034     -0.560139    -1.363004
H     -3.934960     -1.245658    -0.647428
H     -2.088537     -1.256415    -2.201916
C     -1.618108      1.980799    -2.043965
H     -1.972066      2.940221    -1.648082
H     -1.685117      2.068297    -3.134406
C     -0.125013      1.796407    -1.705175
C      0.307526      2.374962    -0.377668
H      0.425970      2.363689    -2.470112
H     -0.233329      3.245313    -0.012183
C      1.338229      1.920293     0.327489
C      2.211450      0.757263    -0.079267
H      1.600562      2.410660     1.262470
H      3.239902      1.134786    -0.145616
C      2.258848     -0.343936     0.981413
C      1.287427     -0.463761     1.972944
C      3.340161     -1.227941     1.011984
C      1.368826     -1.460023     2.938962
H      0.460211      0.233937     1.998696
C      3.423576     -2.226017     1.973628
H      4.131718     -1.133297     0.276159
C      2.432561     -2.352237     2.939304
H      0.595630     -1.535279     3.697603
H      4.272851     -2.902730     1.971812
H      2.494985     -3.131428     3.692402
C     -0.542449     -0.530160    -0.877578
H     -0.152630     -1.545910    -0.797605
H     -0.510156     -0.100346     0.121292
C      0.322191      0.328334    -1.806128
C      1.833043      0.315027    -1.524049
H      0.172674     -0.011340    -2.839213
H      2.268766      1.089112    -2.167185
C      2.588353     -0.925642    -1.953488
O      3.775696     -0.940830    -2.165828
O      1.827285     -2.026618    -2.111071
H      2.426161     -2.736265    -2.386760
49
 -1042.12994765 -1041.75758000  4.44 5.09
C      1.324799     -0.703303     2.887706
C      2.182035      0.473536     3.452215
H      1.334352     -1.543759     3.589016
H      2.390436      0.373355     4.523068
C      1.688154      1.866092     3.189039
C      2.353179      2.730866     2.420480
H      0.766168      2.171642     3.678577
H      1.977928      3.741776     2.286113
C      3.600899      2.358799     1.735554
C      4.069787      1.111469     1.781538
H      4.127268      3.127022     1.176178
H      4.983430      0.849877     1.252326
C      3.355131      0.030790     2.531397
C      2.372639     -0.911414     1.759078
H      4.080091     -0.572363     3.085905
H      2.732917     -1.939259     1.646012
C     -0.097194     -0.483059     2.377581
H     -0.235460      0.543464     2.027105
H     -0.830710     -0.647584     3.174503
C     -0.339629     -1.463784     1.217745
C     -1.792684     -1.614706     0.859762
H     -0.011173     -2.446669     1.587055
H     -2.468896     -1.850829     1.679973
C     -2.283291     -1.497735    -0.366076
C     -1.412518     -1.185119    -1.566751
H     -3.346925     -1.634794    -0.532044
H     -1.003436     -2.146012    -1.917826
C     -2.196928     -0.630302    -2.750918
C     -3.332593     -1.325640    -3.178170
C     -1.816651      0.498995    -3.472646
C     -4.079690     -0.892946    -4.262463
H     -3.631418     -2.229345    -2.655204
C     -2.564571      0.937049    -4.562594
H     -0.927688      1.060047    -3.207899
C     -3.701428      0.250244    -4.959580
H     -4.959404     -1.451816    -4.567326
H     -2.247580      1.823920    -5.103246
H     -4.284075      0.594675    -5.807998
C      1.842913     -0.379995     0.434871
H      2.600233     -0.464415    -0.351239
H      1.645734      0.687760     0.542567
C      0.560221     -1.117946     0.002538
C     -0.185308     -0.366823    -1.132785
H      0.857713     -2.071350    -0.451706
H      0.514930     -0.293149    -1.970256
C     -0.479656      1.084682    -0.786786
O      0.283728      1.992256    -1.013065
O     -1.675569      1.300343    -0.213297
H     -1.740210      2.255460    -0.068026
49
 -1042.12874540 -1041.75581600  5.19 6.19
C      1.733171     -2.228606    -0.509242
C      2.759902     -2.418062     0.656271
H      1.985492     -2.772202    -1.425662
H      3.704417     -2.794624     0.252055
C      2.367716     -3.223803     1.855420
C      1.885401     -2.648713     2.957579
H      2.469675     -4.305337     1.802310
H      1.599987     -3.251456     3.815134
C      1.702702     -1.191082     3.039816
C      2.099619     -0.376807     2.060290
H      1.221892     -0.785346     3.925883
H      1.930594      0.695052     2.143705
C      2.813593     -0.873940     0.836327
C      2.071009     -0.712204    -0.527132
H      3.825213     -0.453594     0.827953
H      2.785343     -0.475016    -1.321748
C      0.270334     -2.441580    -0.146528
H      0.087190     -2.023721     0.848175
H      0.035366     -3.509251    -0.078659
C     -0.681948     -1.753212    -1.154545
C     -2.030460     -1.562360    -0.502705
H     -0.822614     -2.430844    -2.008471
H     -2.448101     -2.441812    -0.013798
C     -2.711958     -0.424174    -0.450961
C     -2.258246      0.849049    -1.121638
H     -3.654066     -0.385859     0.091456
H     -3.137648      1.264597    -1.635743
C     -1.811349      1.925346    -0.132451
C     -1.680362      3.249689    -0.552596
C     -1.555948      1.631851     1.205511
C     -1.275639      4.244026     0.328493
H     -1.891335      3.519820    -1.582486
C     -1.150003      2.623867     2.090564
H     -1.670582      0.613524     1.560630
C     -1.003256      3.934419     1.655015
H     -1.176815      5.265690    -0.025211
H     -0.950251      2.368497     3.126706
H     -0.685294      4.708832     2.345772
C      0.849008      0.190920    -0.644204
H      1.132438      1.206437    -0.925146
H      0.334485      0.248563     0.314844
C     -0.085885     -0.427545    -1.690547
C     -1.222881      0.458584    -2.210274
H      0.534088     -0.663602    -2.563811
H     -1.787477     -0.163592    -2.922432
C     -0.721018      1.640495    -3.030858
O      0.406147      2.037844    -3.075988
O     -1.670507      2.252815    -3.791531
H     -2.521144      1.808424    -3.695544
49
 -1042.12967849 -1041.75581400  4.61 6.20
C      2.384503     -1.836249     0.740324
C      2.009796     -1.209620     2.118868
H      3.402712     -2.226817     0.843834
H      2.576851     -1.643331     2.950936
C      0.561134     -1.160032     2.505035
C     -0.089514     -0.010538     2.694679
H      0.049269     -2.104955     2.666533
H     -1.132042     -0.016766     2.999485
C      0.558128      1.292358     2.478716
C      1.789737      1.374142     1.972070
H     -0.007894      2.190134     2.706647
H      2.245952      2.345024     1.792295
C      2.557966      0.147076     1.595760
C      2.454638     -0.414369     0.133695
H      3.612362      0.264303     1.862977
H      3.329897     -0.226580    -0.496429
C      1.556090     -2.893450     0.015095
H      1.216934     -3.660820     0.721867
H      2.234335     -3.405312    -0.678147
C      0.359830     -2.390751    -0.816220
C     -0.934725     -2.308182    -0.048563
H      0.188897     -3.160087    -1.585097
H     -1.116225     -3.089704     0.686997
C     -1.887994     -1.410008    -0.262136
C     -1.801315     -0.292222    -1.283031
H     -2.808241     -1.489588     0.309004
H     -2.724934     -0.328184    -1.874681
C     -1.816181      1.089801    -0.605382
C     -2.615866      1.273404     0.527327
C     -1.123005      2.202598    -1.080208
C     -2.705374      2.501507     1.167604
H     -3.186865      0.444385     0.928669
C     -1.205153      3.434172    -0.440087
H     -0.480807      2.137583    -1.947462
C     -1.994684      3.594500     0.688828
H     -3.337583      2.602172     2.044827
H     -0.642284      4.274408    -0.835412
H     -2.060081      4.557505     1.185021
C      1.175835     -0.006764    -0.589940
H      1.352795      0.928118    -1.126508
H      0.396047      0.193224     0.142896
C      0.652700     -1.073089    -1.552310
C     -0.647966     -0.652596    -2.257423
H      1.408313     -1.260752    -2.323739
H     -1.021289     -1.545775    -2.780408
C     -0.425750      0.326396    -3.388463
O      0.633876      0.761796    -3.758943
O     -1.583578      0.639892    -4.012686
H     -1.359251      1.242049    -4.736718
49
 -1042.12757904 -1041.75329400  5.92 7.78
C      0.534137     -3.016281    -0.083300
C     -0.602589     -2.909193     0.979885
H      1.011670     -3.990161     0.070309
H     -0.963336     -3.888428     1.315952
C     -1.789085     -2.046711     0.665704
C     -2.094233     -0.961701     1.380112
H     -2.431588     -2.352516    -0.155589
H     -2.976152     -0.376742     1.135552
C     -1.250637     -0.504268     2.494928
C     -0.082707     -1.091787     2.761635
H     -1.585634      0.350815     3.073642
H      0.543069     -0.726551     3.572868
C      0.420586     -2.231040     1.932996
C      1.333349     -1.940602     0.689786
H      0.905629     -2.976853     2.569764
H      2.394568     -2.169464     0.831242
C      0.338513     -2.830054    -1.585409
H     -0.563188     -3.357824    -1.919568
H      1.178846     -3.334005    -2.078004
C      0.312322     -1.381488    -2.110798
C     -1.061446     -0.761050    -2.138170
H      0.620498     -1.443515    -3.165902
H     -1.887455     -1.419842    -2.399596
C     -1.315940      0.527399    -1.948566
C     -0.262665      1.566283    -1.623613
H     -2.340493      0.871841    -2.054404
H     -0.396734      2.403953    -2.320344
C     -0.487008      2.170984    -0.226650
C      0.539534      2.553914     0.634955
C     -1.797363      2.407945     0.200284
C      0.272096      3.124351     1.874063
H      1.576765      2.403419     0.369986
C     -2.071730      2.981012     1.434265
H     -2.632103      2.143824    -0.438721
C     -1.034808      3.341430     2.285220
H      1.100170      3.402260     2.519222
H     -3.103555      3.148524     1.728457
H     -1.242520      3.790403     3.251191
C      1.158720     -0.537654     0.118301
H      1.864643      0.135315     0.609708
H      0.162070     -0.172680     0.358527
C      1.326438     -0.467093    -1.399833
C      1.116654      0.950062    -1.968040
H      2.333939     -0.803343    -1.667844
H      1.080874      0.830670    -3.060984
C      2.248741      1.943659    -1.808675
O      2.194328      3.090629    -2.170344
O      3.372433      1.421503    -1.266130
H      4.032383      2.130650    -1.268074
49
 -1042.12079620 -1041.74808400  10.18 11.05
C      1.647620     -2.882751     1.022785
C      3.095938     -2.303749     1.014624
H      1.744511     -3.959117     1.199077
H      3.806486     -2.937791     1.557739
C      3.301864     -0.886194     1.456677
C      3.768416      0.057898     0.637144
H      3.108532     -0.653183     2.501343
H      3.952675      1.062246     1.009339
C      4.050584     -0.216998    -0.780143
C      3.748457     -1.394702    -1.328637
H      4.498152      0.573083    -1.376193
H      3.943292     -1.574285    -2.383479
C      3.116144     -2.488370    -0.527689
C      1.555909     -2.632280    -0.501870
H      3.563057     -3.450858    -0.794139
H      1.166425     -3.478027    -1.077995
C      0.519534     -2.362286     1.914978
H      0.914459     -2.073618     2.896224
H     -0.151706     -3.207795     2.103695
C     -0.350417     -1.216384     1.365194
C      0.118783      0.181355     1.690813
H     -1.332039     -1.336929     1.844338
H      1.030414      0.338300     2.255460
C     -0.602725      1.195819     1.232152
C     -1.858227      0.858394     0.458057
H     -0.306577      2.228732     1.367915
H     -2.506626      0.291930     1.142843
C     -2.688752      2.058201     0.023844
C     -3.409173      2.091879    -1.168887
C     -2.803665      3.151302     0.884999
C     -4.194377      3.190514    -1.502851
H     -3.373815      1.259693    -1.863502
C     -3.586317      4.249196     0.557188
H     -2.278769      3.139057     1.834988
C     -4.284124      4.277328    -0.645360
H     -4.740752      3.190222    -2.441451
H     -3.653210      5.085814     1.246263
H     -4.895940      5.135022    -0.906079
C      0.790228     -1.366147    -0.864247
H      0.675991     -1.333526    -1.951659
H      1.359979     -0.479114    -0.580007
C     -0.574348     -1.311820    -0.164025
C     -1.493666     -0.134584    -0.669817
H     -1.103664     -2.248874    -0.374518
H     -2.411661     -0.576026    -1.064706
C     -0.843665      0.615006    -1.816096
O     -0.112093      1.562889    -1.721991
O     -1.187283      0.091011    -3.019807
H     -0.733858      0.620515    -3.692528
