49
 -1042.14290322 -1041.76984900  0.00 0.00
C      0.637631      0.068061     2.974140
C      2.163002     -0.301657     2.989005
H      0.217648      0.268331     3.964584
H      2.438857     -0.641011     3.991993
C      3.179401      0.674862     2.486106
C      3.584684      0.662988     1.215262
H      3.571898      1.415402     3.179012
H      4.315547      1.384532     0.861116
C      3.038213     -0.305451     0.251558
C      2.225483     -1.291752     0.635450
H      3.306161     -0.198520    -0.796325
H      1.840289     -1.994871    -0.100031
C      1.852386     -1.515736     2.072070
C      0.348116     -1.371409     2.454581
H      2.290410     -2.466100     2.399195
H      0.165905     -2.026661     3.312412
C      0.235563      1.192937     2.012999
H      0.990649      1.321292     1.232369
H      0.190204      2.141460     2.560225
C     -1.106640      0.904158     1.328823
C     -1.555425      2.057259     0.472907
H     -1.868821      0.745247     2.101723
H     -1.547368      3.042550     0.937495
C     -1.948647      1.946549    -0.791714
C     -2.022077      0.635281    -1.534922
H     -2.229751      2.836263    -1.350323
H     -2.950752      0.621452    -2.115118
C     -0.885519      0.447501    -2.531695
C     -1.087490     -0.377577    -3.637762
C      0.363815      1.043031    -2.366490
C     -0.071135     -0.607290    -4.556221
H     -2.058883     -0.844667    -3.780964
C      1.383388      0.816543    -3.284343
H      0.539205      1.692887    -1.515836
C      1.171227     -0.009594    -4.381303
H     -0.251726     -1.251669    -5.411171
H      2.348834      1.293636    -3.142921
H      1.968747     -0.183698    -5.096553
C     -0.770973     -1.582587     1.437418
H     -1.706586     -1.749784     1.980881
H     -0.575866     -2.489136     0.850325
C     -0.953674     -0.382848     0.507864
C     -2.059965     -0.552206    -0.533385
H     -0.034731     -0.273036    -0.078363
H     -1.888116     -1.473882    -1.100972
C     -3.450919     -0.684698     0.054104
O     -3.778575     -0.524864     1.200936
O     -4.350713     -1.028703    -0.897827
H     -5.212910     -1.082816    -0.460312
49
 -1042.13940414 -1041.76672700  2.20 1.96
C      0.805821     -2.210266     1.823296
C      2.323887     -2.374187     1.459461
H      0.459639     -2.882247     2.614681
H      2.665928     -3.359214     1.791200
C      3.314271     -1.328619     1.866311
C      3.627904     -0.316655     1.055522
H      3.765476     -1.399879     2.853182
H      4.341777      0.440698     1.366974
C      2.999890     -0.179544    -0.268097
C      2.201215     -1.126024    -0.765301
H      3.194946      0.722751    -0.841202
H      1.753167     -0.997152    -1.748307
C      1.933060     -2.414178    -0.042785
C      0.464310     -2.706072     0.387506
H      2.384401     -3.232393    -0.616406
H      0.344218     -3.794005     0.410819
C      0.353493     -0.779413     2.132682
H      1.046205     -0.055193     1.695341
H      0.375010     -0.614479     3.215960
C     -1.044548     -0.483004     1.572896
C     -1.502815      0.901581     1.955239
H     -1.751318     -1.208867     1.997144
H     -1.442215      1.159448     3.011725
C     -1.945145      1.812873     1.094192
C     -2.103592      1.558988    -0.385599
H     -2.214783      2.804238     1.450887
H     -3.053949      1.996218    -0.705785
C     -1.009732      2.200371    -1.228403
C     -1.268256      2.484033    -2.569538
C      0.252208      2.503659    -0.719363
C     -0.296152      3.049405    -3.384395
H     -2.250107      2.263043    -2.980666
C      1.227254      3.072767    -1.531031
H      0.472244      2.298560     0.322811
C      0.958865      3.345994    -2.866424
H     -0.521747      3.262814    -4.424759
H      2.201857      3.309161    -1.113926
H      1.721709      3.790420    -3.497665
C     -0.735923     -2.105814    -0.342479
H     -1.615499     -2.709152    -0.109297
H     -0.585631     -2.175280    -1.427361
C     -0.997011     -0.649169     0.048713
C     -2.188198      0.032714    -0.638017
H     -0.129090     -0.071987    -0.289509
H     -2.123331     -0.143674    -1.719073
C     -3.588273     -0.433193    -0.260915
O     -4.590689      0.190986    -0.499641
O     -3.645804     -1.639144     0.343741
H     -4.584955     -1.811920     0.505658
49
 -1042.13655104 -1041.76332100  3.99 4.10
C     -0.962222      2.769258     0.803954
C     -0.422474      3.660875    -0.369836
H     -1.542462      3.317615     1.552163
H     -0.411549      4.706300    -0.047294
C     -1.028325      3.555409    -1.734320
C     -0.532889      2.722733    -2.651297
H     -1.900899      4.163482    -1.960932
H     -0.988331      2.648846    -3.634793
C      0.625200      1.864993    -2.353712
C      1.307675      1.981320    -1.212904
H      0.918238      1.120199    -3.089316
H      2.163657      1.336929    -1.024016
C      0.978914      3.019436    -0.179627
C      0.516050      2.516045     1.221352
H      1.810258      3.732092    -0.127380
H      0.811173      3.273418     1.954455
C     -1.732566      1.515151     0.378062
H     -1.483726      1.241111    -0.650845
H     -2.808561      1.721954     0.393298
C     -1.406783      0.308225     1.268097
C     -2.244467     -0.887030     0.891543
H     -1.637995      0.575548     2.311438
H     -3.311095     -0.717428     0.750959
C     -1.756057     -2.113387     0.709504
C     -0.298610     -2.472618     0.887079
H     -2.418839     -2.916667     0.395364
H     -0.244965     -3.413895     1.450146
C      0.391608     -2.729442    -0.448151
C      0.005084     -2.083812    -1.621666
C      1.467134     -3.614986    -0.498226
C      0.681690     -2.317404    -2.813698
H     -0.834183     -1.396599    -1.608018
C      2.145097     -3.850395    -1.687412
H      1.776919     -4.129822     0.407685
C      1.754026     -3.199774    -2.851469
H      0.364252     -1.809537    -3.719642
H      2.978730     -4.545655    -1.704099
H      2.279679     -3.381475    -3.783437
C      0.909609      1.143319     1.759575
H      0.763272      1.138417     2.845343
H      1.978745      0.963447     1.598223
C      0.093034      0.008022     1.142728
C      0.463748     -1.384854     1.683715
H      0.315714     -0.029634     0.071201
H      1.536314     -1.530761     1.536660
C      0.279988     -1.482131     3.196727
O      1.172457     -1.272405     3.971630
O     -0.947029     -1.806065     3.660607
H     -1.574233     -1.918363     2.930581
49
 -1042.13464898 -1041.76317200  5.18 4.19
C      0.066608      2.823900     0.952265
C      1.501203      3.406081     1.136660
H     -0.659472      3.491827     1.426909
H      1.504915      4.474229     1.381163
C      2.485021      3.166429     0.028507
C      3.587671      2.433237     0.194755
H      2.292698      3.649112    -0.926920
H      4.295469      2.319840    -0.621994
C      3.887052      1.760344     1.468465
C      3.012368      1.767641     2.475012
H      4.835838      1.239818     1.563092
H      3.239355      1.246053     3.402135
C      1.693145      2.465074     2.360539
C      0.423298      1.659828     1.918920
H      1.476188      2.994876     3.292932
H     -0.300280      1.502771     2.723085
C     -0.476776      2.387141    -0.407830
H      0.335138      2.127496    -1.096169
H     -1.053607      3.191607    -0.876723
C     -1.344503      1.148443    -0.164998
C     -2.273651      0.758288    -1.284001
H     -1.976824      1.378869     0.706716
H     -2.709828      1.552630    -1.886848
C     -2.611098     -0.504024    -1.519594
C     -2.104578     -1.688576    -0.730143
H     -3.298533     -0.738278    -2.329479
H     -2.982807     -2.245650    -0.384584
C     -1.283764     -2.645060    -1.585906
C     -0.566932     -2.221960    -2.703578
C     -1.223200     -3.993763    -1.231874
C      0.192100     -3.121849    -3.444004
H     -0.609726     -1.180375    -3.004534
C     -0.465964     -4.895238    -1.967523
H     -1.781684     -4.341903    -0.366523
C      0.247105     -4.460633    -3.079186
H      0.742370     -2.772028    -4.312216
H     -0.435723     -5.940274    -1.674310
H      0.839678     -5.161547    -3.658450
C      0.688362      0.348729     1.180326
H      0.856270     -0.455533     1.901422
H      1.617950      0.451347     0.614678
C     -0.429000     -0.034396     0.178358
C     -1.295736     -1.263803     0.519784
H      0.073881     -0.310396    -0.756421
H     -0.636663     -2.085665     0.818622
C     -2.217368     -1.007509     1.693409
O     -3.406345     -0.830584     1.642087
O     -1.547295     -1.006911     2.870225
H     -2.202325     -0.839659     3.563744
49
 -1042.13362617 -1041.76216100  5.82 4.82
C     -0.447128      2.688712     1.197369
C      0.849994      3.368970     1.731013
H     -1.319327      3.248359     1.550549
H      0.696844      4.408685     2.041506
C      2.066095      3.307541     0.853047
C      3.176572      2.659407     1.210721
H      2.034541      3.851003    -0.088488
H      4.049817      2.675746     0.564082
C      3.264219      1.909269     2.473319
C      2.197792      1.754812     3.258955
H      4.219078      1.466178     2.741737
H      2.272996      1.176581     4.177190
C      0.869430      2.343034     2.900007
C     -0.188372      1.475493     2.134812
H      0.403578      2.768141     3.794025
H     -1.045631      1.183015     2.745571
C     -0.647487      2.338970    -0.276850
H      0.311751      2.222866    -0.793267
H     -1.201516      3.128299    -0.796367
C     -1.401167      1.006153    -0.321533
C     -2.030479      0.645494    -1.642097
H     -2.220101      1.089741     0.411749
H     -2.435164      1.451715    -2.251436
C     -2.147962     -0.610187    -2.059754
C     -1.655800     -1.814893    -1.290772
H     -2.619244     -0.820376    -3.017492
H     -2.483938     -2.528076    -1.228263
C     -0.523964     -2.538494    -2.011021
C      0.336312     -1.891654    -2.895898
C     -0.324597     -3.897925    -1.766550
C      1.370410     -2.585132    -3.515689
H      0.192319     -0.837806    -3.109990
C      0.707283     -4.593471    -2.382182
H     -0.991503     -4.419542    -1.084479
C      1.561286     -3.936840    -3.260988
H      2.029540     -2.063285    -4.202826
H      0.842145     -5.651358    -2.178193
H      2.368787     -4.476059    -3.745914
C      0.359119      0.257187     1.390399
H      0.408662     -0.593778     2.074593
H      1.385531      0.466184     1.078450
C     -0.448789     -0.112013     0.121022
C     -1.220772     -1.445293     0.147904
H      0.277451     -0.230162    -0.691748
H     -0.556247     -2.227831     0.529074
C     -2.353959     -1.382171     1.155342
O     -2.195470     -1.195660     2.336020
O     -3.584536     -1.553778     0.627783
H     -4.208402     -1.485768     1.365561
49
 -1042.13301607 -1041.76187600  6.20 5.00
C     -0.645099     -3.013135    -1.298813
C     -0.337192     -4.333776    -0.509672
H     -0.984256     -3.169054    -2.327556
H     -0.146209     -5.139246    -1.225318
C     -1.268586     -4.812765     0.558722
C     -1.089277     -4.475936     1.836970
H     -2.112111     -5.435046     0.269417
H     -1.776476     -4.825452     2.602268
C      0.021601     -3.602070     2.245760
C      0.963721     -3.215067     1.383430
H      0.057529     -3.269157     3.279654
H      1.770675     -2.565048     1.714828
C      1.000741     -3.703377    -0.035338
C      0.858468     -2.650727    -1.174812
H      1.880727     -4.346607    -0.153893
H      1.392476     -3.047034    -2.044616
C     -1.575288     -2.029411    -0.590155
H     -1.567707     -2.207632     0.488993
H     -2.606198     -2.195086    -0.922528
C     -1.180879     -0.566769    -0.816538
C     -2.166397      0.371748    -0.167636
H     -1.157478     -0.361455    -1.898752
H     -3.139501     -0.013605     0.128076
C     -1.852738      1.645697     0.025308
C     -0.526847      2.168639    -0.466923
H     -2.553521      2.342331     0.475299
H     -0.586648      2.238628    -1.559146
C     -0.187219      3.548500     0.062173
C      0.276192      4.544554    -0.794485
C     -0.303342      3.838270     1.422356
C      0.611907      5.802041    -0.306259
H      0.384924      4.327101    -1.852816
C      0.030724      5.093011     1.913786
H     -0.662084      3.071908     2.104625
C      0.489538      6.081130     1.049047
H      0.970742      6.566098    -0.989285
H     -0.066062      5.300977     2.975216
H      0.751358      7.062729     1.431185
C      1.252676     -1.188219    -1.008832
H      1.364789     -0.765950    -2.013984
H      2.236509     -1.123196    -0.529563
C      0.230318     -0.336466    -0.242388
C      0.622919      1.178226    -0.140701
H      0.190460     -0.700670     0.789237
H      0.943348      1.360587     0.887738
C      1.802494      1.523499    -1.025699
O      1.744621      1.789000    -2.199697
O      2.974788      1.505876    -0.354640
H      3.666870      1.731407    -0.994042
49
 -1042.13048597 -1041.75973200  7.79 6.35
C      2.622691      0.230796     2.024690
C      3.513939     -0.998341     2.419068
H      2.865767      1.154826     2.558402
H      3.951519     -0.818344     3.405757
C      4.564763     -1.503072     1.481233
C      4.304303     -2.476279     0.606879
H      5.551170     -1.046646     1.515116
H      5.074545     -2.829209    -0.073025
C      2.965920     -3.080563     0.516342
C      1.997445     -2.773620     1.381778
H      2.777626     -3.790346    -0.284793
H      1.016808     -3.234931     1.286777
C      2.225040     -1.855421     2.547111
C      1.402729     -0.533421     2.606631
H      2.153731     -2.445835     3.468222
H      1.292361     -0.272459     3.664224
C      2.517656      0.514108     0.525992
H      2.747018     -0.386245    -0.051082
H      3.265043      1.263077     0.241054
C      1.119149      0.984095     0.117561
C      1.055696      1.368716    -1.338608
H      0.851274      1.867053     0.720203
H      1.983802      1.528022    -1.882513
C     -0.119205      1.529844    -1.932590
C     -1.384208      1.357090    -1.125446
H     -0.198539      1.828994    -2.973245
H     -1.460347      2.215899    -0.449933
C     -2.638873      1.327496    -1.975977
C     -3.724172      2.146625    -1.674756
C     -2.737569      0.465387    -3.068712
C     -4.881794      2.107369    -2.443727
H     -3.663573      2.819304    -0.824294
C     -3.891379      0.422525    -3.839568
H     -1.899784     -0.179406    -3.321004
C     -4.969438      1.244995    -3.528883
H     -5.717308      2.753861    -2.192681
H     -3.950588     -0.255470    -4.685746
H     -5.872361      1.212241    -4.130365
C      0.041001     -0.377299     1.938648
H     -0.455008      0.483495     2.401432
H     -0.579841     -1.253454     2.158719
C      0.108671     -0.140331     0.423339
C     -1.286010      0.074675    -0.259840
H      0.522253     -1.042887    -0.036117
H     -1.452217     -0.778000    -0.921089
C     -2.432690     -0.003626     0.725650
O     -3.082560     -0.991430     0.950195
O     -2.675327      1.165718     1.365669
H     -3.419129      1.000426     1.963299
