49
 -1042.13369794 -1041.76129400  0.00 0.00
C     -1.436797     -0.562491    -2.930618
C     -1.659077      0.752301    -3.757623
H     -1.757218     -1.448694    -3.486843
H     -2.237798      0.514433    -4.656255
C     -0.508432      1.619813    -4.165689
C     -0.255169      2.786181    -3.569985
H      0.115958      1.282004    -4.989975
H      0.569891      3.407353    -3.907349
C     -1.046396      3.248309    -2.417960
C     -2.083366      2.548737    -1.955913
H     -0.746832      4.171386    -1.929171
H     -2.633390      2.900027    -1.085130
C     -2.578903      1.307648    -2.635783
C     -2.494720     -0.069718    -1.901950
H     -3.599339      1.509625    -2.980761
H     -3.443969     -0.599990    -2.022433
C     -0.067579     -0.845631    -2.317658
H      0.694038     -0.860565    -3.106464
H     -0.077032     -1.844409    -1.871627
C      0.344033      0.181554    -1.254845
C      1.762964     -0.020184    -0.797029
H      0.347095      1.150333    -1.760059
H      2.504150     -0.132478    -1.587008
C      2.166459     -0.008199     0.465646
C      1.215333      0.172379     1.624159
H      3.224012     -0.099254     0.699062
H      1.123305      1.250935     1.815479
C      1.701517     -0.463418     2.915270
C      2.375201     -1.684658     2.913825
C      1.452297      0.158865     4.137349
C      2.788779     -2.266771     4.105109
H      2.572672     -2.185725     1.971572
C      1.863713     -0.420971     5.331314
H      0.931508      1.113066     4.155092
C      2.534290     -1.638008     5.318591
H      3.312431     -3.217850     4.085186
H      1.660660      0.080171     6.272914
H      2.857748     -2.094707     6.248598
C     -2.082451     -0.183875    -0.440270
H     -2.160578     -1.249258    -0.191404
H     -2.811674      0.326575     0.200254
C     -0.666707      0.315877    -0.086498
C     -0.205129     -0.312821     1.245539
H     -0.737491      1.386591     0.129555
H     -0.894316      0.009368     2.032061
C     -0.260590     -1.829515     1.233977
O      0.260959     -2.559467     0.431728
O     -0.983637     -2.314386     2.268956
H     -0.950424     -3.280487     2.205061
49
 -1042.13403888 -1041.76116900  -0.21 0.08
C     -1.153721     -0.665859    -2.232798
C     -1.695610      0.129653    -3.456171
H     -1.614363     -1.658655    -2.258419
H     -2.027156     -0.513228    -4.280265
C     -0.817151      1.209735    -4.018003
C     -1.195244      2.489664    -4.049878
H      0.136399      0.913703    -4.449428
H     -0.555028      3.237208    -4.510799
C     -2.470421      2.934473    -3.465809
C     -3.232234      2.098735    -2.757589
H     -2.765007      3.970949    -3.603811
H     -4.158800      2.448461    -2.308100
C     -2.832232      0.671957    -2.550624
C     -1.990856      0.246160    -1.294087
H     -3.713396      0.026763    -2.616807
H     -2.569475     -0.287743    -0.538440
C      0.338406     -0.847873    -1.971200
H      0.864608     -1.011932    -2.919503
H      0.476343     -1.757351    -1.385896
C      1.033335      0.311548    -1.224230
C      2.356513     -0.162663    -0.680049
H      1.229663      1.105586    -1.956601
H      3.116682     -0.441442    -1.408198
C      2.625526     -0.286137     0.613495
C      1.673730      0.106743     1.719394
H      3.607572     -0.633621     0.925285
H      1.949315      1.130813     2.011497
C      1.798932     -0.734634     2.979491
C      2.203589     -2.067001     2.942236
C      1.483665     -0.167561     4.213951
C      2.295667     -2.811274     4.111593
H      2.427880     -2.528319     1.987357
C      1.568877     -0.909678     5.384958
H      1.168514      0.872249     4.259826
C      1.977847     -2.237235     5.336793
H      2.612439     -3.848845     4.063952
H      1.318228     -0.449517     6.335942
H      2.048363     -2.822332     6.248338
C     -1.188525      1.375500    -0.646109
H     -1.779371      1.832078     0.156087
H     -1.016382      2.163330    -1.383403
C      0.192503      0.972527    -0.117641
C      0.209040      0.214212     1.228132
H      0.710163      1.912512     0.121092
H     -0.348681      0.817529     1.950893
C     -0.479294     -1.134950     1.209435
O     -0.027372     -2.169965     0.796431
O     -1.714503     -1.073607     1.761876
H     -2.078974     -1.970666     1.725809
49
 -1042.13332112 -1041.76049200  0.24 0.50
C      0.611906      1.930365    -1.778426
C     -0.394706      2.581830    -2.794237
H      1.629606      1.810632    -2.161370
H     -0.013409      2.439830    -3.810046
C     -0.853917      3.994556    -2.616052
C     -1.964539      4.280795    -1.934126
H     -0.254377      4.793347    -3.046111
H     -2.285023      5.311111    -1.807800
C     -2.767944      3.219828    -1.306333
C     -2.499261      1.927737    -1.504921
H     -3.591724      3.514545    -0.661620
H     -3.102147      1.163646    -1.018479
C     -1.419859      1.470767    -2.442012
C     -0.248449      0.640675    -1.841351
H     -1.894740      0.988547    -3.304812
H      0.133794      0.001875    -2.644645
C      0.641838      2.581610    -0.396348
H     -0.287192      3.130102    -0.223838
H      1.447256      3.324260    -0.353916
C      0.787529      1.583127     0.756627
C      2.126652      0.893416     0.833988
H      0.679868      2.166599     1.683943
H      2.994280      1.435212     0.461432
C      2.300362     -0.306965     1.378028
C      1.195942     -1.155675     1.966086
H      3.301249     -0.730887     1.428185
H      1.447115     -1.313748     3.023065
C      1.158589     -2.560672     1.358432
C      0.575449     -3.606849     2.076246
C      1.750020     -2.861225     0.132756
C      0.539966     -4.897563     1.566712
H      0.150497     -3.412055     3.055153
C      1.721702     -4.152888    -0.380322
H      2.250513     -2.079730    -0.428626
C      1.107511     -5.175924     0.329214
H      0.073325     -5.689990     2.144029
H      2.185373     -4.357454    -1.340429
H      1.082045     -6.183618    -0.073214
C     -0.395799     -0.218876    -0.592283
H      0.419029     -0.940469    -0.604008
H     -1.316462     -0.804303    -0.639961
C     -0.344889      0.546212     0.736212
C     -0.144803     -0.350040     1.969006
H     -1.290785      1.082899     0.870291
H     -0.058329      0.326906     2.827606
C     -1.356718     -1.202520     2.279036
O     -2.220922     -1.542085     1.515670
O     -1.401597     -1.534092     3.594824
H     -2.203824     -2.062805     3.718742
49
 -1042.13140111 -1041.75859200  1.44 1.70
C      0.371349      0.855141    -2.497743
C     -0.757601      1.432978    -3.424953
H      1.122975      0.253416    -3.016990
H     -0.817863      0.822939    -4.331395
C     -0.780556      2.884795    -3.785940
C     -1.466930      3.768462    -3.058967
H     -0.212167      3.212727    -4.653028
H     -1.471698      4.820799    -3.328677
C     -2.207955      3.354387    -1.857102
C     -2.336141      2.069089    -1.521440
H     -2.649016      4.128723    -1.235038
H     -2.880538      1.792308    -0.621018
C     -1.809082      0.960716    -2.385201
C     -0.723278      0.025868    -1.776895
H     -2.663180      0.416038    -2.805185
H     -0.819304     -0.942444    -2.279385
C      1.050002      1.883360    -1.594913
H      0.397872      2.749706    -1.460848
H      1.960337      2.258052    -2.077401
C      1.379461      1.353630    -0.195952
C      2.452377      0.293288    -0.158323
H      1.763863      2.212030     0.375583
H      3.216022      0.324664    -0.933549
C      2.536977     -0.631349     0.793201
C      1.570412     -0.767594     1.947067
H      3.356648     -1.346601     0.771366
H      2.152386     -0.646290     2.869879
C      0.972048     -2.174098     2.044670
C      0.985473     -3.065309     0.972766
C      0.454414     -2.622534     3.262418
C      0.461046     -4.346597     1.097514
H      1.420592     -2.761614     0.026674
C     -0.074313     -3.899869     3.390086
H      0.467915     -1.965835     4.125818
C     -0.080551     -4.767208     2.304488
H      0.479332     -5.017940     0.244498
H     -0.476316     -4.220770     4.346369
H     -0.493357     -5.766352     2.401537
C     -0.599812     -0.236904    -0.280241
H     -0.044465     -1.165422    -0.162830
H     -1.587465     -0.424167     0.144945
C      0.114680      0.858229     0.524964
C      0.568343      0.431382     1.932992
H     -0.559693      1.714671     0.635382
H      1.152654      1.271945     2.324695
C     -0.513479      0.275761     2.980659
O     -0.312544      0.395914     4.164238
O     -1.742152      0.010033     2.496670
H     -2.327724     -0.062152     3.264535
49
 -1042.13120373 -1041.75858700  1.57 1.70
C     -1.729966     -1.434764    -0.190345
C     -3.199825     -1.849346    -0.524391
H     -1.466378     -1.492824     0.867108
H     -3.800332     -1.836903     0.390315
C     -3.445745     -3.125219    -1.268722
C     -3.622327     -3.143928    -2.590223
H     -3.456227     -4.053836    -0.702479
H     -3.789611     -4.082206    -3.111583
C     -3.581400     -1.905326    -3.383540
C     -3.445958     -0.708031    -2.810773
H     -3.663818     -1.987124    -4.464000
H     -3.419331      0.188029    -3.427310
C     -3.378760     -0.526753    -1.322440
C     -2.035962     -0.003806    -0.709450
H     -4.241851      0.071111    -1.009029
H     -2.266711      0.677825     0.109890
C     -0.648704     -2.077810    -1.040840
H     -0.989247     -2.127387    -2.080123
H     -0.472401     -3.113075    -0.728683
C      0.677490     -1.290577    -0.990106
C      1.535339     -1.674062     0.188707
H      1.243610     -1.620720    -1.872597
H      1.551068     -2.731121     0.446944
C      2.310054     -0.830216     0.854242
C      2.349098      0.639547     0.513128
H      2.960654     -1.189560     1.645972
H      3.011843      0.759428    -0.356035
C      2.910482      1.528394     1.608837
C      3.676835      2.642747     1.268455
C      2.664443      1.276650     2.958157
C      4.185852      3.487565     2.246992
H      3.881521      2.850525     0.220996
C      3.174487      2.117359     3.939322
H      2.057217      0.423820     3.240521
C      3.935781      3.226376     3.588733
H      4.779983      4.350006     1.960265
H      2.973145      1.905421     4.985198
H      4.331495      3.882570     4.357529
C     -0.955204      0.585401    -1.616531
H     -1.070075      1.671917    -1.701997
H     -1.074379      0.181568    -2.626900
C      0.474916      0.250635    -1.153244
C      0.956151      1.113877     0.040922
H      1.141048      0.563954    -1.966035
H      1.048577      2.141311    -0.323467
C     -0.010496      1.184669     1.207931
O     -0.228761      0.327501     2.022097
O     -0.628658      2.389482     1.266508
H     -1.208961      2.366907     2.042077
49
 -1042.13224448 -1041.75850200  0.91 1.75
C      1.880027      1.658317    -1.210039
C      2.962521      2.517439    -0.461703
H      1.486647      2.120474    -2.120092
H      2.848770      3.564600    -0.758199
C      4.407652      2.132086    -0.501941
C      4.942771      1.353100     0.439873
H      5.017991      2.491939    -1.326814
H      5.992544      1.076717     0.397165
C      4.126341      0.818135     1.541080
C      2.859316      1.196430     1.721795
H      4.580477      0.090785     2.208801
H      2.272108      0.773449     2.534334
C      2.211464      2.248631     0.869583
C      0.967623      1.829842     0.033560
H      2.037386      3.135653     1.490278
H      0.352626      2.725871    -0.099816
C      2.280528      0.208825    -1.486436
H      3.089970     -0.088741    -0.815502
H      2.679525      0.123100    -2.503909
C      1.141861     -0.796354    -1.283908
C      0.004237     -0.671752    -2.265851
H      1.582216     -1.796217    -1.416251
H      0.215791     -0.243821    -3.243853
C     -1.229855     -1.080942    -1.992191
C     -1.657080     -1.736134    -0.691403
H     -2.006437     -0.970653    -2.745258
H     -1.924882     -2.770140    -0.943379
C     -2.970996     -1.124568    -0.198566
C     -4.119679     -1.436080    -0.932073
C     -3.114095     -0.297694     0.912406
C     -5.362785     -0.931529    -0.582016
H     -4.034350     -2.089403    -1.796892
C     -4.360599      0.210404     1.268633
H     -2.264811     -0.038591     1.529206
C     -5.489107     -0.098999     0.525218
H     -6.236005     -1.192551    -1.172148
H     -4.441823      0.854775     2.138964
H     -6.458749      0.299256     0.806262
C      0.048325      0.686771     0.447291
H     -0.892255      0.819078    -0.093841
H     -0.179422      0.770066     1.513958
C      0.589171     -0.717266     0.145815
C     -0.453097     -1.837348     0.287222
H      1.402691     -0.938764     0.842996
H      0.065548     -2.759576    -0.008808
C     -0.844210     -2.112183     1.723387
O     -0.435153     -1.531221     2.696266
O     -1.688832     -3.161195     1.818028
H     -1.881906     -3.284022     2.758764
49
 -1042.13129345 -1041.75827600  1.51 1.89
C     -1.851112     -1.008576     1.564047
C     -2.895445     -2.150943     1.396030
H     -2.160545     -0.414995     2.430779
H     -3.414322     -2.404660     2.328173
C     -2.431042     -3.423619     0.749192
C     -2.962349     -3.878185    -0.388095
H     -1.668839     -4.004785     1.263391
H     -2.638267     -4.830095    -0.800369
C     -3.987223     -3.118464    -1.121259
C     -4.322643     -1.880868    -0.752172
H     -4.447045     -3.581882    -1.989543
H     -5.061313     -1.320323    -1.320520
C     -3.688873     -1.226934     0.435092
C     -2.404492     -0.336705     0.277347
H     -4.441432     -0.657761     0.988991
H     -2.590380      0.734169     0.369919
C     -0.354946     -1.278991     1.685548
H     -0.184597     -2.154555     2.324209
H      0.109649     -0.438800     2.203597
C      0.392223     -1.493600     0.352768
C      1.879395     -1.384484     0.573863
H      0.173303     -2.515109     0.016055
H      2.343903     -2.150194     1.193418
C      2.634464     -0.412100     0.077175
C      2.122196      0.682657    -0.830209
H      3.704942     -0.418544     0.267623
H      2.324214      0.341325    -1.856740
C      2.845451      2.014127    -0.693779
C      2.791995      2.923253    -1.750660
C      3.554280      2.369427     0.450865
C      3.425480      4.156156    -1.668220
H      2.245171      2.661759    -2.653270
C      4.195009      3.599587     0.536172
H      3.592245      1.683282     1.289440
C      4.132266      4.498740    -0.521299
H      3.369050      4.848964    -2.502347
H      4.740837      3.859125     1.438399
H      4.630450      5.460531    -0.451237
C     -1.577703     -0.621348    -0.979489
H     -1.877873      0.067937    -1.776354
H     -1.806813     -1.626397    -1.341974
C     -0.055937     -0.573203    -0.794606
C      0.582742      0.833956    -0.765833
H      0.370667     -1.016768    -1.705379
H      0.252278      1.349132    -1.672696
C      0.085058      1.746699     0.336303
O     -0.842560      2.506566     0.210983
O      0.779676      1.666872     1.488052
H      0.388811      2.318621     2.088621
49
 -1042.13057569 -1041.75781700  1.96 2.18
C     -1.358971     -2.795490    -1.117416
C     -0.412839     -3.559735    -2.108523
H     -2.283035     -3.351198    -0.931409
H     -0.952482     -4.415751    -2.526913
C      0.943230     -4.031918    -1.682626
C      2.061649     -3.422977    -2.079930
H      0.998482     -4.913750    -1.048007
H      3.032491     -3.806142    -1.778205
C      2.021539     -2.198418    -2.895780
C      0.869337     -1.676273    -3.317839
H      2.962902     -1.708298    -3.128870
H      0.867845     -0.755253    -3.897340
C     -0.449237     -2.350071    -3.082654
C     -1.524730     -1.667749    -2.176139
H     -0.865389     -2.604807    -4.063938
H     -2.499689     -1.724715    -2.668967
C     -0.812164     -2.304560     0.220658
H     -0.418691     -3.152383     0.793987
H     -1.638172     -1.889592     0.806154
C      0.293493     -1.250256     0.076073
C      0.930454     -0.917135     1.397718
H      1.085262     -1.731474    -0.503071
H      1.230987     -1.768110     2.007641
C      1.201827      0.307987     1.825485
C      0.863926      1.545329     1.030260
H      1.729538      0.449727     2.765292
H      1.723552      1.757695     0.378455
C      0.645881      2.784328     1.882091
C      1.009961      4.037591     1.392827
C      0.053579      2.708256     3.141863
C      0.790560      5.187813     2.140519
H      1.474591      4.114572     0.413004
C     -0.166519      3.855381     3.893747
H     -0.237744      1.740531     3.536890
C      0.200048      5.100062     3.395675
H      1.082431      6.154527     1.741505
H     -0.628035      3.775956     4.873461
H      0.026757      5.996287     3.982937
C     -1.357875     -0.251557    -1.641335
H     -2.271815     -0.039128    -1.074021
H     -1.347860      0.471142    -2.465480
C     -0.130347     -0.002094    -0.742338
C     -0.328904      1.294724     0.076469
H      0.716688      0.224363    -1.396864
H     -0.373213      2.128157    -0.630419
C     -1.664091      1.385623     0.790293
O     -2.496238      2.226577     0.562580
O     -1.864647      0.430837     1.723125
H     -2.734320      0.611370     2.109373
49
 -1042.13007325 -1041.75740000  2.27 2.44
C      1.234496      1.658541    -1.470625
C      0.286894      2.427596    -2.445408
H      2.061753      1.217862    -2.034506
H      0.753710      2.648658    -3.411773
C     -0.357932      3.681195    -1.929897
C     -1.677177      3.793682    -1.763012
H      0.288839      4.531490    -1.725651
H     -2.105820      4.733271    -1.424920
C     -2.590790      2.670877    -2.025774
C     -2.124294      1.462715    -2.342989
H     -3.659115      2.846804    -1.936816
H     -2.812010      0.636601    -2.509879
C     -0.656975      1.192813    -2.457157
C      0.126325      0.599362    -1.234566
H     -0.469890      0.569842    -3.336980
H      0.455999     -0.422636    -1.403333
C      1.772387      2.310817    -0.203729
H      1.114260      3.124028     0.120452
H      2.760817      2.751125    -0.377353
C      1.830051      1.276393     0.929759
C      2.681306      0.078273     0.581787
H      2.297976      1.758435     1.800841
H      3.607832      0.279092     0.045525
C      2.394236     -1.178336     0.906342
C      1.171170     -1.604403     1.684548
H      3.081598     -1.971322     0.618422
H      1.526988     -2.194938     2.539092
C      0.261043     -2.551776     0.898057
C      0.451454     -2.803111    -0.458215
C     -0.747520     -3.261428     1.554953
C     -0.369231     -3.687117    -1.150449
H      1.260183     -2.309897    -0.984103
C     -1.573091     -4.140859     0.868938
H     -0.884255     -3.141179     2.623401
C     -1.394664     -4.351554    -0.493268
H     -0.200826     -3.855729    -2.209683
H     -2.353954     -4.671233     1.405485
H     -2.038756     -5.038425    -1.032965
C     -0.557456      0.719756     0.125743
H     -1.231351     -0.125810     0.275793
H     -1.196507      1.606045     0.118415
C      0.404010      0.863717     1.336833
C      0.519709     -0.330620     2.292950
H      0.003191      1.681576     1.945677
H      1.228491     -0.018011     3.071724
C     -0.766646     -0.587505     3.047539
O     -1.869002     -0.215394     2.745862
O     -0.539677     -1.280591     4.193239
H     -1.397781     -1.378690     4.631670
49
 -1042.12858390 -1041.75615800  3.21 3.22
C     -0.084823      0.561126    -2.469738
C      1.235328      1.242173    -2.951931
H     -0.942140      1.166790    -2.777502
H      1.072747      1.982568    -3.743190
C      2.360962      0.339908    -3.366909
C      3.520238      0.288547    -2.707718
H      2.220577     -0.258522    -4.264211
H      4.323588     -0.349262    -3.066476
C      3.756316      1.080357    -1.490546
C      2.780262      1.801292    -0.937659
H      4.744996      1.048947    -1.041436
H      2.963725      2.362432    -0.024029
C      1.407371      1.848016    -1.530918
C      0.290631      0.882849    -1.000146
H      1.033070      2.875730    -1.500046
H     -0.491937      1.405393    -0.455908
C     -0.372824     -0.908024    -2.748980
H      0.558904     -1.457962    -2.919576
H     -0.981037     -1.024720    -3.653071
C     -1.073231     -1.542698    -1.539191
C     -2.363197     -0.846476    -1.173307
H     -1.334152     -2.576963    -1.807802
H     -2.992709     -0.521540    -2.000589
C     -2.786875     -0.637095     0.069324
C     -2.041366     -1.067691     1.311117
H     -3.739771     -0.136051     0.227635
H     -2.734252     -1.664624     1.918175
C     -1.641115      0.110178     2.205031
C     -1.767879      1.431191     1.782342
C     -1.210070     -0.114934     3.515941
C     -1.424725      2.491846     2.613546
H     -2.152255      1.639659     0.791093
C     -0.862560      0.940336     4.348039
H     -1.159946     -1.126240     3.902432
C     -0.957898      2.251656     3.897733
H     -1.527073      3.510360     2.251638
H     -0.524256      0.734883     5.359180
H     -0.686090      3.077806     4.547067
C      0.770101     -0.329814    -0.202848
H      0.870264     -0.051024     0.847964
H      1.776729     -0.592202    -0.536719
C     -0.104036     -1.607211    -0.344520
C     -0.918708     -2.050382     0.878464
H      0.587875     -2.429806    -0.553759
H     -1.469844     -2.942106     0.551372
C     -0.118872     -2.584697     2.048616
O     -0.595473     -3.249277     2.935601
O      1.196496     -2.294291     2.012568
H      1.588944     -2.710431     2.793848
49
 -1042.12851213 -1041.75575700  3.25 3.47
C     -1.665879     -1.070330     1.049841
C     -3.154663     -1.405525     1.388052
H     -1.108264     -0.603710     1.863788
H     -3.467411     -0.837141     2.269357
C     -3.560544     -2.838390     1.544484
C     -4.109257     -3.525664     0.542222
H     -3.375818     -3.320624     2.501761
H     -4.387425     -4.567413     0.674579
C     -4.341614     -2.905390    -0.771691
C     -4.087802     -1.614700    -0.994482
H     -4.730069     -3.530888    -1.570878
H     -4.271570     -1.187792    -1.978175
C     -3.598902     -0.689197     0.081176
C     -2.154709     -0.100637    -0.060712
H     -4.353326      0.090505     0.233801
H     -2.162662      0.936329     0.277664
C     -0.851039     -2.196361     0.439555
H     -1.472818     -2.741768    -0.277680
H     -0.558116     -2.924327     1.204161
C      0.406039     -1.676712    -0.288642
C      1.576672     -1.478630     0.639712
H      0.711680     -2.495713    -0.954830
H      1.709734     -2.233646     1.412557
C      2.478286     -0.515884     0.511588
C      2.370127      0.533548    -0.567157
H      3.346376     -0.489335     1.164079
H      2.773489      0.091087    -1.489857
C      3.174795      1.796455    -0.311767
C      3.700580      2.505233    -1.391644
C      3.387876      2.291573     0.973840
C      4.419052      3.678033    -1.196890
H      3.547016      2.131764    -2.401075
C      4.108683      3.462360     1.173757
H      2.981240      1.758135     1.825702
C      4.625717      4.161503     0.089625
H      4.819093      4.214313    -2.052071
H      4.264413      3.831397     2.183143
H      5.186495      5.077477     0.246826
C     -1.403247     -0.227014    -1.387220
H     -1.574489      0.656184    -2.012277
H     -1.797647     -1.083380    -1.942988
C      0.110783     -0.450526    -1.211777
C      0.889729      0.850156    -0.880478
H      0.496035     -0.718171    -2.202441
H      0.860082      1.468753    -1.781885
C      0.244556      1.752433     0.153001
O     -0.358473      2.759573    -0.124616
O      0.399220      1.356322     1.431578
H     -0.042018      2.025738     1.975380
49
 -1042.12944521 -1041.75571900  2.67 3.50
C      0.539891      1.434302    -2.251524
C     -0.521231      2.219963    -3.102719
H      1.344319      0.979840    -2.837036
H     -0.490292      1.852039    -4.132801
C     -0.548742      3.715893    -3.097379
C     -1.315521      4.391288    -2.239406
H      0.083047      4.248698    -3.804031
H     -1.323072      5.477617    -2.242182
C     -2.145737      3.691812    -1.246158
C     -2.270945      2.363121    -1.248171
H     -2.656846      4.287929    -0.494825
H     -2.882411      1.871496    -0.494620
C     -1.644828      1.503029    -2.307011
C     -0.591498      0.450262    -1.854344
H     -2.446305      1.075443    -2.921231
H     -0.621332     -0.366066    -2.583419
C      1.120610      2.207917    -1.068563
H      0.449692      3.024219    -0.790338
H      2.067521      2.676518    -1.360984
C      1.327330      1.351635     0.184902
C      2.380864      0.280988     0.050317
H      1.657102      2.038115     0.979128
H      3.185166      0.444436    -0.664445
C      2.380179     -0.829262     0.780157
C      1.347243     -1.167498     1.838387
H      3.175680     -1.556703     0.638361
H      1.876614     -1.193818     2.799522
C      0.847466     -2.602675     1.652149
C      1.766378     -3.626797     1.896632
C     -0.443057     -2.966707     1.280085
C      1.418773     -4.961845     1.758061
H      2.776864     -3.369811     2.203996
C     -0.799187     -4.304984     1.140688
H     -1.202745     -2.217269     1.102273
C      0.127635     -5.309281     1.373950
H      2.156603     -5.733611     1.955120
H     -1.813907     -4.557092     0.847360
H     -0.152010     -6.352091     1.264054
C     -0.587631     -0.168812    -0.460584
H      0.002185     -1.086931    -0.520007
H     -1.607337     -0.462190    -0.193865
C      0.005078      0.717059     0.644779
C      0.312096     -0.018448     1.963112
H     -0.696763      1.526406     0.865125
H      0.815137      0.730126     2.590414
C     -0.861487     -0.413497     2.837232
O     -0.754211     -0.978836     3.893578
O     -2.065712     -0.022640     2.358001
H     -2.720665     -0.293293     3.018262
49
 -1042.12634090 -1041.75367300  4.62 4.78
C     -1.033024     -2.341168    -0.554805
C     -0.692129     -3.443667    -1.599554
H     -2.058312     -2.519115    -0.215255
H     -1.283615     -4.358343    -1.473986
C      0.751716     -3.826429    -1.750452
C      1.410992     -3.676335    -2.901573
H      1.246934     -4.281201    -0.895508
H      2.440826     -4.012298    -2.989241
C      0.782600     -3.054296    -4.077691
C     -0.423578     -2.489410    -3.996536
H      1.337657     -3.043757    -5.011449
H     -0.864640     -2.009755    -4.867294
C     -1.193619     -2.487765    -2.713761
C     -1.066708     -1.293767    -1.700780
H     -2.254298     -2.662147    -2.917443
H     -1.939591     -0.638472    -1.681610
C     -0.170401     -2.081312     0.676052
H      0.187495     -3.033383     1.086473
H     -0.798271     -1.634483     1.447187
C      1.049170     -1.159523     0.457962
C      1.549745     -0.666213     1.790970
H      1.841750     -1.763979    -0.002535
H      1.952423     -1.414377     2.471950
C      1.494355      0.600075     2.182620
C      1.000610      1.735040     1.315981
H      1.878401      0.876329     3.161526
H      1.894890      2.171470     0.846289
C      0.338458      2.866932     2.085158
C      0.401125      4.164607     1.579018
C     -0.347580      2.648132     3.277385
C     -0.206130      5.222127     2.244467
H      0.935808      4.351692     0.650625
C     -0.951379      3.703719     3.948922
H     -0.425858      1.640582     3.668820
C     -0.884786      4.993689     3.435607
H     -0.146497      6.225293     1.833394
H     -1.482832      3.515644     4.876997
H     -1.360066      5.815530     3.961842
C      0.221942     -0.479908    -1.832294
H      0.063099      0.361840    -2.518379
H      0.990515     -1.099580    -2.300162
C      0.819901      0.015363    -0.509969
C      0.130784      1.239817     0.133646
H      1.823134      0.392625    -0.755253
H      0.127321      2.040099    -0.618358
C     -1.316864      1.010324     0.551003
O     -1.667241      0.464039     1.556300
O     -2.259217      1.495079    -0.298373
H     -1.845016      1.920633    -1.057932
49
 -1042.12546165 -1041.75231300  5.17 5.64
C     -0.962723      1.609828    -1.316873
C     -1.693330      2.947790    -1.661289
H     -1.520461      0.703969    -1.566651
H     -2.762694      2.758196    -1.795249
C     -1.183686      3.783566    -2.794442
C     -0.355372      4.808730    -2.592195
H     -1.490803      3.519412    -3.803850
H      0.010638      5.395967    -3.429639
C      0.099504      5.167663    -1.239619
C     -0.355625      4.538344    -0.154841
H      0.826839      5.968948    -1.140686
H      0.001400      4.829478     0.830768
C     -1.398243      3.460932    -0.223199
C     -0.979495      2.007869     0.183086
H     -2.285493      3.805584     0.319381
H     -1.807649      1.543468     0.718352
C      0.470015      1.490291    -1.804217
H      0.986121      2.443163    -1.649828
H      0.501899      1.297050    -2.882117
C      1.230346      0.376277    -1.057469
C      0.937247     -0.982768    -1.638019
H      2.295611      0.561782    -1.252944
H      0.793267     -1.030563    -2.715537
C      0.886641     -2.096107    -0.923506
C      1.095059     -2.073406     0.576434
H      0.687088     -3.047506    -1.404974
H      2.175407     -1.938228     0.744824
C      0.745541     -3.392691     1.253505
C     -0.027872     -3.494102     2.408280
C      1.281593     -4.568955     0.720173
C     -0.279399     -4.732736     2.993214
H     -0.445713     -2.613441     2.880884
C      1.033876     -5.803305     1.300665
H      1.913648     -4.513785    -0.161549
C      0.243321     -5.892435     2.442317
H     -0.889082     -4.782691     3.890487
H      1.461645     -6.699994     0.862322
H      0.044961     -6.856667     2.899347
C      0.340469      1.762210     0.916453
H      0.183577      1.761680     2.000219
H      1.029252      2.584946     0.701050
C      1.041361      0.455865     0.494528
C      0.442231     -0.812618     1.169366
H      2.049858      0.502278     0.920688
H      0.708104     -0.740225     2.227429
C     -1.074377     -0.851262     1.207168
O     -1.720696     -0.480647     2.158330
O     -1.665502     -1.349163     0.108300
H     -2.618304     -1.331991     0.281131
49
 -1042.12359547 -1041.75151200  6.34 6.14
C     -0.450934     -1.758473     1.365123
C     -1.372333     -2.831181     2.031932
H     -0.033384     -1.022855     2.054210
H     -1.675863     -2.486161     3.025006
C     -0.896443     -4.248437     2.117513
C     -1.254751     -5.165044     1.217889
H     -0.224232     -4.513724     2.930417
H     -0.889714     -6.185399     1.293936
C     -2.138271     -4.824697     0.091586
C     -2.679665     -3.611949    -0.035416
H     -2.343738     -5.594053    -0.647830
H     -3.329218     -3.394293    -0.880754
C     -2.474055     -2.524380     0.978162
C     -1.665336     -1.257698     0.537135
H     -3.447213     -2.267866     1.411320
H     -2.116535     -0.372503     0.987412
C      0.629837     -2.291199     0.440645
H      0.225100     -3.121634    -0.146994
H      1.464711     -2.705166     1.016673
C      1.158064     -1.210509    -0.526253
C      2.255423     -0.373171     0.078692
H      1.641116     -1.764977    -1.343275
H      2.973768     -0.902357     0.701607
C      2.432235      0.916771    -0.164675
C      1.483077      1.690512    -1.047033
H      3.289463      1.441757     0.245843
H      1.764091      1.488649    -2.091044
C      1.538280      3.197477    -0.867777
C      1.733630      3.781753     0.383167
C      1.368300      4.029971    -1.973359
C      1.759779      5.163678     0.521239
H      1.851904      3.149114     1.255676
C      1.390901      5.412782    -1.838263
H      1.219713      3.589580    -2.956394
C      1.587610      5.984772    -0.587300
H      1.913219      5.601979     1.502870
H      1.256174      6.043366    -2.711854
H      1.606830      7.064292    -0.475516
C     -1.362326     -1.023645    -0.943317
H     -2.148423     -0.418431    -1.412450
H     -1.368103     -1.983562    -1.469060
C      0.013742     -0.375960    -1.187037
C      0.044866      1.145502    -0.889462
H      0.186920     -0.420492    -2.269324
H     -0.570551      1.626543    -1.661116
C     -0.535554      1.545139     0.464821
O     -0.004509      1.376153     1.523415
O     -1.749775      2.153784     0.428887
H     -2.057832      2.246242    -0.479674
49
 -1042.12336220 -1041.75053300  6.49 6.75
C      0.442265      2.341124    -2.017739
C     -0.557101      3.386917    -2.628978
H      1.404099      2.281537    -2.535538
H     -0.276251      3.579278    -3.668943
C     -0.828928      4.680264    -1.927966
C     -1.842042      4.802915    -1.068465
H     -0.170792      5.523633    -2.122870
H     -2.025354      5.745975    -0.561371
C     -2.720407      3.663900    -0.759258
C     -2.624573      2.505996    -1.415947
H     -3.457592      3.785100     0.030032
H     -3.285370      1.679989    -1.161864
C     -1.674846      2.311555    -2.561457
C     -0.564220      1.229618    -2.411437
H     -2.262860      2.198932    -3.479999
H     -0.325630      0.875788    -3.419592
C      0.659039      2.455427    -0.509888
H     -0.182164      2.980871    -0.051266
H      1.548137      3.063895    -0.308922
C      0.786139      1.104332     0.195406
C      1.964853      0.255587    -0.211436
H      0.871378      1.317977     1.270025
H      2.658006      0.603732    -0.972167
C      2.063836     -0.951215     0.334477
C      1.036791     -1.318631     1.384650
H      2.827823     -1.661408     0.042928
H      1.143699     -0.575606     2.188061
C      1.245882     -2.663222     2.069006
C      0.185886     -3.398333     2.600741
C      2.537401     -3.153956     2.263303
C      0.404832     -4.596472     3.270639
H     -0.835842     -3.047234     2.502566
C      2.761743     -4.349199     2.933747
H      3.388920     -2.589339     1.898239
C      1.694056     -5.082683     3.436937
H     -0.442098     -5.149220     3.666437
H      3.778685     -4.706435     3.065688
H      1.866733     -6.018221     3.959266
C     -0.710674      0.006375    -1.515559
H      0.022703     -0.731203    -1.851862
H     -1.699028     -0.440010    -1.673995
C     -0.487274      0.253256    -0.012312
C     -0.386787     -1.082078     0.816217
H     -1.338664      0.820146     0.375807
H     -1.087133     -1.004149     1.651056
C     -0.832419     -2.270405    -0.009692
O     -0.122645     -2.986316    -0.663195
O     -2.173461     -2.455492     0.060173
H     -2.378753     -3.223295    -0.493677
49
 -1042.11919919 -1041.74818400  9.10 8.23
C      0.523344     -2.578340     0.957456
C     -0.379536     -3.795441     1.346245
H      1.308229     -2.434965     1.705356
H      0.063688     -4.415354     2.133120
C     -0.840255     -4.692071     0.234480
C     -2.120456     -4.787073    -0.129656
H     -0.087949     -5.299891    -0.263453
H     -2.413182     -5.474126    -0.918997
C     -3.170856     -3.981638     0.512399
C     -2.872943     -3.062448     1.431237
H     -4.200924     -4.146968     0.209334
H     -3.661817     -2.464314     1.882236
C     -1.461763     -2.803007     1.858850
C     -0.671678     -1.620231     1.205498
H     -1.422994     -2.707968     2.948067
H     -0.457817     -0.800003     1.890314
C      1.109671     -2.469936    -0.444675
H      0.466242     -2.984751    -1.165150
H      2.090676     -2.955652    -0.498048
C      1.237160     -0.998956    -0.861942
C      2.216686     -0.238990    -0.000889
H      1.654019     -0.990952    -1.879157
H      2.923338     -0.805588     0.600078
C      2.261607      1.084208    -0.037263
C      1.267359      1.814133    -0.907531
H      2.993615      1.648894     0.529303
H      1.518649      1.588132    -1.953738
C      1.270408      3.326741    -0.783221
C      1.479807      3.971437     0.435449
C      1.035679      4.106435    -1.915677
C      1.459132      5.358206     0.514911
H      1.644502      3.384565     1.331570
C      1.010879      5.493555    -1.839329
H      0.873804      3.620262    -2.874750
C      1.223966      6.125256    -0.620248
H      1.625328      5.842552     1.472619
H      0.826332      6.080705    -2.733872
H      1.206758      7.208553    -0.553940
C     -1.222478     -1.100008    -0.117182
H     -2.116447     -0.491289     0.052543
H     -1.560763     -1.951547    -0.715090
C     -0.171849     -0.323159    -0.947314
C     -0.145362      1.218656    -0.684188
H     -0.485428     -0.421078    -1.992212
H     -0.810202      1.687788    -1.419832
C     -0.672597      1.600338     0.697469
O     -0.046701      1.544723     1.716203
O     -1.957204      2.037137     0.738633
H     -2.339681      2.053461    -0.146008
