49
 -1042.13454131 -1041.76271300  0.00 0.00
C     -1.966640     -0.711749    -1.942096
C     -1.816342     -0.105504    -3.363618
H     -3.032020     -0.960649    -1.824865
H     -2.505292     -0.518629    -4.108930
C     -0.420763     -0.077064    -3.915661
C      0.219796      1.064100    -4.180610
H      0.056917     -1.032097    -4.122584
H      1.217572      1.041045    -4.610969
C     -0.390844      2.378387    -3.923600
C     -1.545033      2.486306    -3.263074
H      0.128440      3.263612    -4.279659
H     -1.983734      3.462749    -3.072773
C     -2.231575      1.267871    -2.731775
C     -1.739649      0.684128    -1.375948
H     -3.319773      1.381671    -2.733019
H     -0.659876      0.875052    -1.353133
C     -1.156674     -1.750841    -1.202769
H     -1.314474     -2.770852    -1.572107
H     -0.084106     -1.540446    -1.281130
C     -1.617722     -1.671114     0.281194
C     -0.827740     -2.630020     1.134297
H     -2.665550     -2.003914     0.291336
H     -1.008620     -3.691447     0.974288
C      0.068492     -2.255882     2.039151
C      0.399717     -0.817660     2.349197
H      0.598377     -3.008206     2.618683
H     -0.112949     -0.543728     3.280071
C      1.888517     -0.603129     2.562623
C      2.823893     -1.186517     1.707702
C      2.344927      0.209285     3.598285
C      4.183219     -0.964469     1.885001
H      2.482472     -1.826388     0.898679
C      3.704733      0.434030     3.778358
H      1.626180      0.677648     4.264364
C      4.628532     -0.152475     2.922321
H      4.898013     -1.426846     1.211004
H      4.042223      1.069506     4.591501
H      5.690785      0.021885     3.061559
C     -2.305293      0.815954     0.018370
H     -2.185948      1.817179     0.444316
H     -3.381169      0.601495     0.009699
C     -1.593546     -0.246123     0.898368
C     -0.133973      0.117886     1.244246
H     -2.130207     -0.302845     1.853837
H      0.500214      0.018480     0.360298
C     -0.048832      1.549660     1.724620
O     -0.497676      1.956786     2.766458
O      0.584866      2.358156     0.849693
H      0.588137      3.245724     1.238799
49
 -1042.13265719 -1041.76095700  1.18 1.10
C     -2.106624     -0.890385    -1.733085
C     -2.025026     -0.520402    -3.238893
H     -3.172300     -1.054888    -1.513696
H     -2.782666     -1.002142    -3.867176
C     -0.670696     -0.659780    -3.871115
C      0.005603      0.387128    -4.349990
H     -0.255698     -1.661829    -3.953345
H      0.969436      0.239085    -4.829985
C     -0.520733      1.759135    -4.266945
C     -1.620415      2.035476    -3.563870
H      0.015898      2.546784    -4.788183
H     -1.996563      3.053805    -3.503576
C     -2.328157      0.955988    -2.807424
C     -1.773569      0.560115    -1.408907
H     -3.406962      1.132591    -2.761150
H     -0.686886      0.690804    -1.479344
C     -1.298544     -1.848806    -0.890399
H     -1.531930     -2.902466    -1.083077
H     -0.225466     -1.717171    -1.067976
C     -1.648625     -1.514615     0.588485
C     -0.841167     -2.373700     1.527793
H     -2.706587     -1.784200     0.718591
H     -1.075229     -3.436692     1.541839
C      0.130979     -1.916468     2.307087
C      0.539143     -0.464778     2.376471
H      0.668712     -2.600033     2.959935
H      0.093459     -0.039260     3.284025
C      2.044757     -0.294881     2.479905
C      2.902387     -1.007397     1.642109
C      2.595291      0.599749     3.394170
C      4.277496     -0.829257     1.717175
H      2.487565     -1.713345     0.927903
C      3.971401      0.781871     3.472306
H      1.938859      1.162490     4.052161
C      4.817015      0.067519     2.633268
H      4.931208     -1.392378     1.058014
H      4.382301      1.483120     4.192216
H      5.891820      0.207372     2.691695
C     -2.236330      0.938425    -0.021760
H     -2.038741      1.985469     0.228794
H     -3.319411      0.788123     0.068971
C     -1.517438     -0.014180     0.971892
C     -0.021208      0.311109     1.165430
H     -1.994934      0.102680     1.952857
H      0.542463      0.020549     0.276479
C      0.219128      1.796166     1.317450
O      0.801779      2.492974     0.529028
O     -0.312671      2.296580     2.458844
H     -0.112126      3.243952     2.465001
49
 -1042.12320070 -1041.75231200  7.12 6.53
C     -1.447803     -0.828472    -2.124126
C     -0.767288     -1.059565    -3.503315
H     -2.233128     -0.075921    -2.275687
H     -1.427868     -0.915093    -4.365593
C     -0.014241     -2.349704    -3.650586
C      1.308424     -2.391253    -3.826135
H     -0.590395     -3.272105    -3.638669
H      1.809612     -3.346088    -3.961599
C      2.128253     -1.169696    -3.865156
C      1.604916      0.021868    -3.572460
H      3.176425     -1.263490    -4.134457
H      2.221268      0.917209    -3.597947
C      0.173105      0.142571    -3.155802
C     -0.180764     -0.120150    -1.664429
H     -0.264918      1.087776    -3.491022
H      0.518908     -0.882359    -1.301208
C     -1.913619     -1.848435    -1.103053
H     -2.968679     -2.105529    -1.241330
H     -1.342879     -2.777269    -1.201641
C     -1.684640     -1.257861     0.325772
C     -0.501065     -1.872521     1.035140
H     -2.568714     -1.521109     0.921075
H     -0.222270     -2.888392     0.762517
C      0.173872     -1.258536     1.998488
C     -0.142722      0.116157     2.525939
H      0.995278     -1.776505     2.488795
H     -0.415983     -0.019035     3.579667
C      1.062241      1.050461     2.534007
C      2.217740      0.798802     1.798377
C      1.019401      2.202104     3.322558
C      3.296224      1.676691     1.841546
H      2.274909     -0.091223     1.180097
C      2.092019      3.081341     3.368162
H      0.130965      2.410127     3.913792
C      3.238022      2.821430     2.624223
H      4.185870      1.461597     1.257495
H      2.035550      3.969523     3.990203
H      4.080044      3.505357     2.657005
C     -0.459888      0.883374    -0.565016
H      0.443515      1.122377    -0.002884
H     -0.832306      1.826585    -0.982341
C     -1.565866      0.290723     0.362309
C     -1.371396      0.751701     1.826913
H     -2.523110      0.697777     0.020583
H     -1.260973      1.840977     1.819359
C     -2.637730      0.464083     2.609185
O     -2.787733     -0.387560     3.445892
O     -3.642915      1.294291     2.245777
H     -4.417669      1.042964     2.769580
49
 -1042.12268032 -1041.75137800  7.44 7.11
C     -0.764150     -2.493255    -0.940049
C      0.188469     -3.717827    -0.831050
H     -0.996781     -2.362077    -2.005225
H      0.038914     -4.480337    -1.603692
C      0.260137     -4.370182     0.518906
C      1.375140     -4.378174     1.252790
H     -0.633341     -4.872911     0.882082
H      1.392290     -4.890788     2.211015
C      2.612692     -3.724859     0.797097
C      2.627950     -2.964678    -0.298918
H      3.516466     -3.873390     1.381162
H      3.546401     -2.481178    -0.622814
C      1.372040     -2.722792    -1.075023
C      0.415107     -1.597097    -0.588967
H      1.575115     -2.615663    -2.145010
H      0.497017     -1.561101     0.504013
C     -1.985090     -2.150653    -0.108467
H     -2.905148     -2.524827    -0.568771
H     -1.914632     -2.609764     0.882860
C     -2.057478     -0.597516     0.051417
C     -1.642235     -0.127511     1.423624
H     -3.107814     -0.315028    -0.074528
H     -1.770019     -0.816814     2.256212
C     -1.178683      1.091749     1.670246
C     -1.015784      2.175509     0.637001
H     -0.928941      1.373590     2.690799
H     -1.706973      2.977093     0.923605
C      0.363109      2.826703     0.657294
C      0.519790      4.079377     0.060847
C      1.471648      2.231543     1.252460
C      1.752438      4.716635     0.051625
H     -0.341243      4.556457    -0.400229
C      2.709052      2.868161     1.246655
H      1.370064      1.258725     1.722740
C      2.854696      4.110941     0.645901
H      1.852568      5.691378    -0.416236
H      3.562124      2.386345     1.714463
H      3.820349      4.606379     0.641877
C      0.242836     -0.195599    -1.136916
H      0.874743      0.519802    -0.607458
H      0.532162     -0.152093    -2.193817
C     -1.266305      0.190987    -1.027374
C     -1.414876      1.702763    -0.799189
H     -1.737282     -0.031899    -1.990214
H     -0.754563      2.219893    -1.505694
C     -2.803435      2.193975    -1.165817
O     -3.740047      1.524425    -1.515345
O     -2.887822      3.545222    -1.098220
H     -3.790674      3.780360    -1.357666
