49
 -1042.02874346 -1041.67197100  0.00 0.00
C     -1.053726     -1.401888    -2.844536
C     -0.831345      0.131975    -2.878357
H     -1.268977     -1.824750    -3.829460
H     -0.714580      0.560512    -3.877592
C      0.346602      0.556831    -2.010172
C      0.106237      1.500104    -0.980702
H      1.256217      0.744408    -2.578365
H      0.948429      1.977648    -0.489997
C     -1.199950      1.781613    -0.496509
C     -2.312018      1.261819    -1.075525
H     -1.305366      2.465014     0.342921
H     -3.294087      1.505625    -0.681560
C     -2.239825      0.356533    -2.258861
C     -2.381660     -1.191613    -2.047636
H     -2.959102      0.696652    -3.011013
H     -3.241267     -1.604216    -2.586785
C      0.138688     -2.126240    -2.212802
H      0.773772     -2.513652    -3.015685
H     -0.189819     -2.997651    -1.637917
C      0.991230     -1.200020    -1.345547
C      0.956207     -1.354963     0.065035
H      2.000988     -1.051543    -1.725228
H      0.165316     -1.959402     0.497793
C      1.825479     -0.715348     0.974349
C      2.826304      0.152222     0.633772
H      1.659500     -0.925658     2.027228
H      2.993279      0.365816    -0.419794
C      3.708274      0.857151     1.551711
C      4.660532      1.743471     1.027052
C      3.660082      0.699152     2.947290
C      5.526241      2.443055     1.853244
H      4.713901      1.881322    -0.049233
C      4.525198      1.397617     3.770892
H      2.942265      0.019374     3.393111
C      5.463158      2.274009     3.231096
H      6.253306      3.123343     1.420486
H      4.471417      1.258866     4.846439
H      6.138894      2.819139     3.881961
C     -2.449121     -1.669262    -0.597088
H     -1.707074     -1.150315     0.011846
H     -2.220382     -2.742379    -0.562915
C     -3.811913     -1.470223    -0.006374
C     -4.071067     -0.786238     1.104892
H     -4.654384     -1.925931    -0.525743
H     -3.291641     -0.293310     1.677448
C     -5.458317     -0.667038     1.609288
O     -6.445305     -1.134895     1.098027
O     -5.510087      0.050662     2.756632
H     -6.440504      0.082597     3.022883
49
 -1042.02901262 -1041.67177900  -0.17 0.12
C      0.231659     -2.674442    -1.589268
C     -0.876368     -2.540164    -0.512848
H      0.151775     -3.573450    -2.205854
H     -1.601143     -3.358654    -0.510778
C     -1.621351     -1.216376    -0.571049
C     -1.738748     -0.484090     0.628422
H     -2.516062     -1.245608    -1.191705
H     -2.502456      0.279278     0.730012
C     -0.702928     -0.549114     1.603888
C      0.258998     -1.502764     1.557942
H     -0.677237      0.198004     2.393172
H      1.073121     -1.490000     2.277294
C      0.183856     -2.662921     0.615290
C      1.299351     -2.861137    -0.462328
H      0.055336     -3.570781     1.217241
H      1.647555     -3.898988    -0.463233
C      0.252280     -1.432992    -2.491261
H     -0.248270     -1.684304    -3.431321
H      1.276435     -1.155305    -2.757517
C     -0.482352     -0.244334    -1.872011
C      0.278537      0.801892    -1.297686
H     -1.328888      0.107977    -2.459250
H      1.326651      0.620038    -1.086162
C     -0.234686      2.047507    -0.876438
C     -1.543808      2.431252    -0.959004
H      0.479358      2.735440    -0.432319
H     -2.261222      1.741399    -1.397780
C     -2.106652      3.690758    -0.494651
C     -3.485625      3.906054    -0.632214
C     -1.339379      4.713147     0.088963
C     -4.076733      5.086096    -0.208229
H     -4.097359      3.127461    -1.079344
C     -1.930330      5.890854     0.511236
H     -0.268902      4.587895     0.209250
C     -3.301601      6.085980     0.366463
H     -5.146800      5.226304    -0.326510
H     -1.317987      6.668375     0.957826
H     -3.759520      7.011610     0.699564
C      2.520625     -1.957205    -0.419436
H      2.217831     -0.913192    -0.298083
H      3.057694     -2.012327    -1.375605
C      3.502328     -2.263208     0.672038
C      3.399461     -3.217548     1.594895
H      4.389514     -1.632712     0.714791
H      2.560312     -3.900540     1.655263
C      4.460747     -3.380222     2.615109
O      5.468768     -2.724498     2.706350
O      4.171446     -4.383687     3.476852
H      4.902770     -4.426762     4.110020
49
 -1042.02899467 -1041.67175600  -0.16 0.13
C      2.565258     -1.607249     0.754613
C      2.074341     -1.633789    -0.716010
H      3.547303     -2.061925     0.908342
H      2.775143     -2.098878    -1.414436
C      1.676386     -0.266318    -1.247455
C      0.411866     -0.151008    -1.860970
H      2.488611      0.262311    -1.744868
H      0.200489      0.679951    -2.525139
C     -0.670914     -0.960268    -1.412225
C     -0.471287     -2.036912    -0.613570
H     -1.682993     -0.693119    -1.705712
H     -1.320580     -2.598068    -0.233796
C      0.897555     -2.567496    -0.322045
C      1.421463     -2.596946     1.150855
H      0.973522     -3.559190    -0.784483
H      1.854688     -3.575572     1.381061
C      2.576502     -0.167975     1.287135
H      3.608485      0.195526     1.269629
H      2.259594     -0.131585     2.333627
C      1.731113      0.779935     0.436927
C      0.455505      1.166770     0.912883
H      2.294750      1.599531    -0.005990
H      0.013028      0.595994     1.722064
C     -0.349720      2.182975     0.354885
C     -0.019922      2.945958    -0.729989
H     -1.316166      2.342028     0.825031
H      0.944544      2.783716    -1.206001
C     -0.847408      3.970126    -1.350579
C     -2.118917      4.331792    -0.874082
C     -0.360047      4.637541    -2.483661
C     -2.860216      5.314694    -1.505678
H     -2.530031      3.842861     0.002280
C     -1.103847      5.621688    -3.116028
H      0.620223      4.371778    -2.869397
C     -2.359311      5.965998    -2.630094
H     -3.839711      5.579619    -1.119219
H     -0.702436      6.122177    -3.991855
H     -2.945231      6.735959    -3.121312
C      0.461126     -2.234314     2.271857
H     -0.082738     -1.317703     2.026159
H      1.024875     -2.020555     3.189609
C     -0.561082     -3.281448     2.599428
C     -0.712625     -4.463635     2.005730
H     -1.254661     -3.044378     3.405157
H     -0.086737     -4.805666     1.189904
C     -1.786484     -5.383128     2.447308
O     -2.574320     -5.183800     3.338368
O     -1.797515     -6.521782     1.714791
H     -2.521466     -7.066222     2.056948
49
 -1042.02879729 -1041.67150500  -0.03 0.29
C     -2.442177      0.521408     1.329098
C     -1.356140      1.491931     1.860988
H     -3.467415      0.864431     1.491969
H     -1.753205      2.393277     2.335353
C     -0.332485      1.892768     0.811603
C      1.029743      1.757294     1.148257
H     -0.594994      2.800178     0.269237
H      1.786496      2.305836     0.598124
C      1.441758      0.705136     2.015773
C      0.548851      0.006116     2.757709
H      2.496361      0.445774     2.062946
H      0.883059     -0.835385     3.359985
C     -0.882227      0.425454     2.884276
C     -2.020813     -0.532259     2.407218
H     -1.044211      0.734424     3.923833
H     -2.796242     -0.599025     3.177416
C     -2.223617      0.247867    -0.165563
H     -2.937055      0.854899    -0.731577
H     -2.447623     -0.792831    -0.412113
C     -0.816614      0.620871    -0.630944
C      0.130747     -0.412501    -0.823800
H     -0.792739      1.382227    -1.408980
H     -0.080314     -1.389851    -0.402856
C      1.391133     -0.259963    -1.441238
C      1.887666      0.909260    -1.944957
H      2.012186     -1.150065    -1.490343
H      1.269332      1.802535    -1.892036
C      3.198877      1.103802    -2.546593
C      4.134690      0.069117    -2.714586
C      3.557280      2.386707    -2.985295
C      5.366711      0.314010    -3.294799
H      3.894506     -0.938246    -2.392723
C      4.792119      2.631057    -3.565902
H      2.848836      3.201274    -2.863064
C      5.704590      1.595063    -3.723974
H      6.073928     -0.500828    -3.416559
H      5.043834      3.634104    -3.896397
H      6.672304      1.781168    -4.178218
C     -1.632905     -1.949038     2.015387
H     -1.216448     -2.455365     2.897783
H     -0.813673     -1.939314     1.291789
C     -2.743034     -2.808893     1.491176
C     -4.024010     -2.466222     1.368155
H     -2.472224     -3.820642     1.192657
H     -4.404350     -1.486076     1.629471
C     -5.006979     -3.443024     0.846937
O     -4.773647     -4.573703     0.498136
O     -6.253580     -2.916363     0.801205
H     -6.836282     -3.608392     0.456031
49
 -1042.02784626 -1041.67150300  0.56 0.29
C     -2.018679      2.273995     0.241132
C     -1.320038      2.421374    -1.136300
H     -2.979638      2.788897     0.316580
H     -1.876230      3.022482    -1.860496
C     -0.950022      1.092047    -1.774176
C      0.375293      0.935718    -2.228820
H     -1.722446      0.691282    -2.429493
H      0.616642      0.170843    -2.958870
C      1.439409      1.583939    -1.538635
C      1.204942      2.571997    -0.641251
H      2.460271      1.258678    -1.722243
H      2.030334      3.003080    -0.079558
C     -0.145843      3.194560    -0.477764
C     -0.877613      3.117454     0.899901
H     -0.073887      4.232560    -0.824229
H     -1.268967      4.106008     1.164980
C     -2.207186      0.789448     0.580528
H     -3.244100      0.520100     0.356660
H     -2.070788      0.609242     1.649583
C     -1.299155     -0.121518    -0.244975
C     -0.126590     -0.639055     0.354692
H     -1.833940     -0.851105    -0.850998
H      0.226713     -0.183794     1.273609
C      0.694230     -1.647802    -0.194203
C      0.482509     -2.275275    -1.389665
H      1.573786     -1.917807     0.383619
H     -0.394324     -2.002005    -1.972375
C      1.335060     -3.286023    -1.998557
C      0.979641     -3.803441    -3.252641
C      2.505000     -3.777639    -1.395174
C      1.753109     -4.767655    -3.880096
H      0.079651     -3.435518    -3.737409
C      3.276004     -4.740505    -2.022073
H      2.812361     -3.406758    -0.423556
C      2.906757     -5.241961    -3.267715
H      1.454717     -5.150656    -4.851161
H      4.175229     -5.107534    -1.536653
H      3.515354     -5.996939    -3.754608
C     -0.094038      2.601760     2.104283
H      0.720171      3.313690     2.298750
H      0.385171      1.647175     1.885730
C     -0.929357      2.507796     3.344383
C     -1.006270      1.443803     4.139661
H     -1.517098      3.383282     3.618019
H     -0.458624      0.526629     3.944474
C     -1.860255      1.469206     5.350204
O     -2.532657      2.396194     5.727071
O     -1.807671      0.293934     6.019653
H     -2.386939      0.385822     6.790185
49
 -1042.02746943 -1041.67149100  0.80 0.30
C     -2.508490      0.604036     1.991708
C     -1.488494     -0.464929     2.462564
H     -3.238130      0.892483     2.752821
H     -1.614784     -0.779744     3.501949
C     -0.040799     -0.056957     2.239999
C      0.796692     -0.970618     1.566545
H      0.408056      0.442358     3.097797
H      1.874834     -0.885698     1.649501
C      0.254812     -1.846852     0.582994
C     -1.081568     -2.033038     0.453076
H      0.934429     -2.371578    -0.084034
H     -1.467526     -2.670519    -0.337217
C     -2.061910     -1.486600     1.441974
C     -3.120235     -0.428414     0.990076
H     -2.550213     -2.339233     1.927963
H     -4.118940     -0.722101     1.331701
C     -1.778365      1.852782     1.479404
H     -1.817079      2.617435     2.261246
H     -2.289326      2.279890     0.611320
C     -0.308367      1.584118     1.158748
C      0.080356      1.449910    -0.196008
H      0.389159      2.173525     1.751715
H     -0.692303      1.293965    -0.941117
C      1.412294      1.403319    -0.661016
C      2.526831      1.482165     0.126139
H      1.542846      1.271533    -1.731499
H      2.397940      1.609827     1.198614
C      3.909274      1.393151    -0.320686
C      4.279207      1.237496    -1.667360
C      4.933828      1.465404     0.634269
C      5.611470      1.159442    -2.032779
H      3.517410      1.181761    -2.437190
C      6.268241      1.386492     0.267112
H      4.669316      1.583931     1.681325
C      6.614761      1.232886    -1.069752
H      5.874691      1.041053    -3.079507
H      7.041256      1.444935     1.027191
H      7.657858      1.171010    -1.362250
C     -3.218840     -0.087121    -0.494610
H     -2.229837      0.080216    -0.921539
H     -3.794031      0.841584    -0.607365
C     -3.919587     -1.163523    -1.269342
C     -3.421711     -1.767126    -2.345810
H     -4.906060     -1.457037    -0.915552
H     -2.443020     -1.518426    -2.744216
C     -4.132674     -2.817361    -3.107495
O     -3.693069     -3.353143    -4.094034
O     -5.346213     -3.135332    -2.596046
H     -5.713990     -3.821358    -3.171326
49
 -1042.02743355 -1041.67133800  0.82 0.40
C     -2.968152      0.848651     0.021151
C     -2.333866      0.826464    -1.392610
H     -4.049252      1.010209     0.024998
H     -3.048626      0.952313    -2.210171
C     -1.493676     -0.413797    -1.654056
C     -0.187042     -0.223038    -2.148366
H     -2.052708     -1.229689    -2.110704
H      0.334896     -1.035698    -2.641681
C      0.548436      0.940602    -1.783676
C     -0.049812      2.006678    -1.197996
H      1.619343      0.965111    -1.969121
H      0.552221      2.856243    -0.885811
C     -1.536798      2.121722    -1.072928
C     -2.206552      2.176797     0.340025
H     -1.854739      2.973815    -1.685113
H     -2.921620      3.004679     0.386519
C     -2.640034     -0.447748     0.772633
H     -3.510031     -1.108569     0.709297
H     -2.478918     -0.258186     1.838099
C     -1.444890     -1.185430     0.171096
C     -0.186355     -1.074520     0.809956
H     -1.670683     -2.194829    -0.168918
H     -0.050531     -0.289463     1.545472
C      0.955147     -1.845657     0.502755
C      1.017769     -2.816814    -0.457020
H      1.853692     -1.620254     1.070418
H      0.120186     -3.041412    -1.028850
C      2.191393     -3.596093    -0.823208
C      2.081460     -4.538195    -1.856259
C      3.440233     -3.456667    -0.194341
C      3.165425     -5.308698    -2.247409
H      1.125030     -4.660422    -2.356925
C      4.521391     -4.226703    -0.585164
H      3.566032     -2.742090     0.611656
C      4.392582     -5.157046    -1.613390
H      3.052456     -6.030555    -3.050430
H      5.476785     -4.103738    -0.084126
H      5.243956     -5.758078    -1.915646
C     -1.307148      2.271630     1.571737
H     -0.442381      1.614527     1.445805
H     -1.851991      1.942822     2.462503
C     -0.804958      3.666989     1.782738
C     -0.979535      4.383012     2.889493
H     -0.269681      4.136864     0.959379
H     -1.506782      3.996306     3.756152
C     -0.452143      5.765260     2.984433
O      0.164906      6.352900     2.131458
O     -0.748209      6.327915     4.179826
H     -0.376232      7.221876     4.166319
49
 -1042.02800775 -1041.67074500  0.46 0.77
C     -0.673806      0.733387    -2.976536
C      0.496274     -0.250532    -2.716971
H     -0.958790      0.824411    -4.027829
H      0.883296     -0.734850    -3.617467
C      0.175296     -1.314062    -1.679308
C      1.092506     -1.487887    -0.622269
H     -0.228154     -2.231946    -2.105095
H      1.094978     -2.407182    -0.046775
C      1.831582     -0.373036    -0.132888
C      1.902478      0.791734    -0.822216
H      2.335949     -0.457568     0.826432
H      2.420760      1.646013    -0.395535
C      1.390061      0.919409    -2.222612
C      0.236676      1.926651    -2.538198
H      2.252879      1.095863    -2.876193
H      0.488092      2.530523    -3.415868
C     -1.900290      0.335343    -2.144320
H     -2.607422     -0.180172    -2.801307
H     -2.424867      1.218170    -1.767028
C     -1.550018     -0.611931    -0.997147
C     -1.477752     -0.091920     0.317321
H     -2.047840     -1.578692    -1.053275
H     -1.421165      0.983876     0.443284
C     -1.370938     -0.863086     1.494794
C     -1.319979     -2.227956     1.543253
H     -1.302094     -0.309107     2.426843
H     -1.382456     -2.784064     0.610546
C     -1.168110     -3.045808     2.737742
C     -1.079976     -2.512729     4.034915
C     -1.105610     -4.439926     2.598556
C     -0.937117     -3.340814     5.134186
H     -1.128448     -1.439916     4.185916
C     -0.961854     -5.268589     3.700520
H     -1.170109     -4.872492     1.604032
C     -0.876695     -4.723075     4.975680
H     -0.872861     -2.907438     6.127666
H     -0.915929     -6.344664     3.563970
H     -0.764515     -5.367506     5.841452
C     -0.227393      2.867111    -1.438343
H     -0.377417      2.316713    -0.505085
H     -1.203179      3.295852    -1.702836
C      0.700181      4.006907    -1.133930
C      1.870945      4.254286    -1.719592
H      0.369318      4.685393    -0.350243
H      2.282055      3.629539    -2.503635
C      2.736287      5.398255    -1.360494
O      3.803993      5.627917    -1.871779
O      2.222261      6.187680    -0.386367
H      2.868915      6.891919    -0.235969
49
 -1042.02684139 -1041.67060600  1.19 0.86
C     -2.285183      1.740311     0.018512
C     -1.706171      1.696771    -1.420212
H     -3.309637      2.115109     0.083966
H     -2.386141      2.079308    -2.185899
C     -1.203513      0.325855    -1.840618
C      0.096098      0.249467    -2.380776
H     -1.957248     -0.286302    -2.334256
H      0.388277     -0.601922    -2.985734
C      1.108224      1.128750    -1.899688
C      0.801563      2.226973    -1.167122
H      2.149807      0.892812    -2.101807
H      1.595227      2.841629    -0.749115
C     -0.605116      2.716450    -1.024384
C     -1.249489      2.852850     0.391043
H     -0.679589      3.660402    -1.577775
H     -1.766278      3.815246     0.466585
C     -2.209492      0.344270     0.656262
H     -3.209960     -0.098182     0.628834
H     -1.933543      0.401568     1.712501
C     -1.259524     -0.596309    -0.084493
C      0.017404     -0.842661     0.471749
H     -1.739626     -1.487705    -0.484975
H      0.383586     -0.169228     1.239506
C      0.918803     -1.839623     0.038706
C      0.697294     -2.711588    -0.989527
H      1.870252     -1.885483     0.561172
H     -0.250530     -2.659493    -1.520542
C      1.623874     -3.720669    -1.482215
C      1.243966     -4.509325    -2.577796
C      2.888982     -3.952019    -0.916208
C      2.084954     -5.485423    -3.089331
H      0.270369     -4.345512    -3.031246
C      3.727379     -4.926980    -1.427186
H      3.218260     -3.367176    -0.064377
C      3.332616     -5.699749    -2.516410
H      1.765696     -6.081427    -3.938769
H      4.700010     -5.090118    -0.972967
H      3.994371     -6.462831    -2.912934
C     -0.353550      2.719923     1.619603
H      0.430783      3.483376     1.576579
H      0.158260      1.754017     1.606648
C     -1.120524      2.867142     2.897633
C     -0.855393      3.759919     3.847362
H     -1.968412      2.205089     3.060502
H     -0.036044      4.468106     3.771943
C     -1.682616      3.819703     5.075634
O     -2.635035      3.124775     5.327888
O     -1.239790      4.775993     5.925759
H     -1.823652      4.753909     6.697970
49
 -1042.02693111 -1041.67048300  1.14 0.93
C     -0.142999      0.327989     2.990775
C      1.338629      0.509484     2.567858
H     -0.387777      0.751397     3.968084
H      1.953635      1.038478     3.300723
C      1.505224      1.171293     1.209520
C      2.348442      0.535373     0.275691
H      1.591843      2.256059     1.259163
H      2.758350      1.092574    -0.559621
C      2.443513     -0.885836     0.263582
C      1.983027     -1.636374     1.293669
H      2.875242     -1.376401    -0.605109
H      2.007210     -2.721643     1.228838
C      1.551945     -1.028168     2.591097
C      0.083956     -1.216724     3.089860
H      2.268804     -1.345640     3.357900
H      0.088353     -1.512248     4.145026
C     -1.072578      0.927485     1.927236
H     -1.401908      1.909788     2.279975
H     -1.978179      0.326903     1.811856
C     -0.375412      1.123520     0.581324
C     -0.610987      0.184327    -0.450603
H     -0.362370      2.155210     0.233455
H     -1.063509     -0.766208    -0.189303
C     -0.216611      0.335046    -1.797583
C      0.455453      1.409613    -2.308711
H     -0.454750     -0.490644    -2.462348
H      0.699625      2.234764    -1.643449
C      0.911917      1.570727    -3.681641
C      0.682800      0.619586    -4.690265
C      1.618050      2.732138    -4.026984
C      1.140477      0.827953    -5.979330
H      0.136880     -0.290067    -4.465405
C      2.076650      2.939638    -5.318613
H      1.807542      3.479488    -3.261537
C      1.840221      1.987726    -6.302909
H      0.950489      0.080402    -6.743543
H      2.621029      3.847853    -5.558385
H      2.196807      2.145674    -7.315503
C     -0.808344     -2.205585     2.344517
H     -0.377278     -3.207577     2.478617
H     -0.801782     -2.015044     1.271162
C     -2.211278     -2.235166     2.872972
C     -3.307878     -2.162206     2.121660
H     -2.324063     -2.328111     3.951430
H     -3.264108     -2.065714     1.040922
C     -4.684192     -2.209088     2.661735
O     -5.679891     -2.151104     1.984595
O     -4.736045     -2.325567     4.010107
H     -5.674174     -2.345371     4.247488
49
 -1042.02689523 -1041.67045100  1.16 0.95
C      2.962605     -0.210651    -0.502234
C      2.249087     -0.232432    -1.879717
H      4.019859      0.062411    -0.546688
H      2.893214      0.028250    -2.723698
C      0.995868      0.626630    -1.927560
C     -0.183502      0.029118    -2.416968
H      1.178194      1.648149    -2.259130
H     -1.001751      0.645273    -2.773432
C     -0.417948     -1.357828    -2.192454
C      0.571956     -2.187232    -1.781811
H     -1.421761     -1.750702    -2.332743
H      0.350142     -3.227084    -1.553550
C      2.005709     -1.760224    -1.749193
C      2.788095     -1.761796    -0.397450
H      2.539902     -2.341580    -2.510325
H      3.762625     -2.243216    -0.536202
C      2.230207      0.737526     0.456512
H      2.783424      1.681334     0.487896
H      2.236434      0.347722     1.477363
C      0.804217      1.046305     0.001381
C     -0.271408      0.374810     0.629538
H      0.612247      2.103840    -0.172785
H     -0.053162     -0.506724     1.222691
C     -1.637100      0.696311     0.474021
C     -2.127714      1.702919    -0.309332
H     -2.342082      0.066908     1.009968
H     -1.423673      2.330483    -0.851138
C     -3.530785      2.027859    -0.521527
C     -3.856794      3.081111    -1.388215
C     -4.587193      1.339689     0.098894
C     -5.175365      3.435383    -1.628073
H     -3.054954      3.625081    -1.879639
C     -5.902962      1.694497    -0.140758
H     -4.377449      0.521903     0.779551
C     -6.206785      2.743315    -1.005104
H     -5.399351      4.254854    -2.304085
H     -6.703530      1.150194     0.350948
H     -7.240515      3.017040    -1.189287
C      2.128337     -2.412175     0.815526
H      2.019131     -3.484033     0.598768
H      1.118836     -2.030864     0.970264
C      2.947155     -2.277739     2.064460
C      2.477839     -1.864941     3.239904
H      3.999263     -2.545632     1.988742
H      1.439457     -1.580355     3.381303
C      3.299451     -1.754348     4.464990
O      2.876992     -1.388536     5.533169
O      4.594944     -2.106028     4.285041
H      5.030599     -1.994793     5.142163
49
 -1042.02775654 -1041.67040000  0.62 0.99
C      2.004685     -1.963038    -0.590443
C      1.237479     -1.620735    -1.893712
H      2.989064     -2.409358    -0.754326
H      1.776187     -1.872575    -2.811042
C      0.780661     -0.173119    -1.967699
C     -0.573279      0.065467    -2.279622
H      1.498443      0.487325    -2.452543
H     -0.885751      1.033417    -2.655992
C     -1.570527     -0.856058    -1.848754
C     -1.247560     -2.094177    -1.402460
H     -2.612271     -0.545642    -1.859086
H     -2.022685     -2.752426    -1.017144
C      0.134906     -2.652276    -1.533940
C      0.937181     -3.057744    -0.255931
H      0.087426     -3.486553    -2.243906
H      1.375689     -4.051548    -0.392972
C      2.147880     -0.710772     0.285825
H      3.163944     -0.322864     0.163534
H      2.042669     -0.957427     1.345141
C      1.171659      0.396744    -0.108825
C      0.016097      0.597181     0.683096
H      1.651990      1.323811    -0.417703
H     -0.272067     -0.182216     1.380566
C     -0.865194      1.695072     0.578447
C     -0.736934      2.729596    -0.305130
H     -1.721624      1.688256     1.246938
H      0.116925      2.735316    -0.978900
C     -1.652675      3.850042    -0.463494
C     -1.380116      4.811508    -1.447396
C     -2.805119      4.024754     0.321298
C     -2.216409      5.899606    -1.643091
H     -0.494981      4.694198    -2.066370
C     -3.638837      5.111530     0.125521
H     -3.049057      3.306032     1.095894
C     -3.351543      6.055766    -0.856989
H     -1.981705      6.628911    -2.412324
H     -4.523129      5.227824     0.744753
H     -4.009090      6.905978    -1.006034
C      0.195537     -3.055881     1.070856
H     -0.613392     -3.798688     1.021609
H     -0.315636     -2.102242     1.226324
C      1.017127     -3.375526     2.284539
C      2.311537     -3.690932     2.300297
H      0.483942     -3.355860     3.232689
H      2.917626     -3.730676     1.403415
C      3.057596     -4.012145     3.535369
O      4.227229     -4.304380     3.564799
O      2.304418     -3.952209     4.660256
H      2.891687     -4.181265     5.394661
49
 -1042.02651840 -1041.67033900  1.40 1.02
C     -1.303800      2.636602    -0.998354
C     -1.854147      2.117191     0.354002
H     -1.661274      3.631703    -1.275572
H     -2.513779      2.818228     0.872201
C     -0.763450      1.661721     1.310730
C     -0.899276      0.384676     1.892597
H     -0.416685      2.447480     1.980835
H     -0.350550      0.133055     2.793564
C     -1.546734     -0.659221     1.172073
C     -2.278574     -0.408511     0.059060
H     -1.437065     -1.683681     1.518829
H     -2.714392     -1.236140    -0.494874
C     -2.622967      0.981341    -0.376687
C     -2.109452      1.526931    -1.750251
H     -3.710983      1.091675    -0.299124
H     -2.933492      1.987764    -2.304762
C      0.230126      2.626170    -0.988246
H      0.577108      3.644388    -0.787266
H      0.630837      2.356374    -1.969939
C      0.801045      1.712579     0.095161
C      1.282076      0.434429    -0.278085
H      1.438756      2.222061     0.815741
H      1.010876      0.047817    -1.254165
C      2.016184     -0.436270     0.555552
C      2.374322     -0.176922     1.848899
H      2.291428     -1.394871     0.124571
H      2.096234      0.780617     2.283487
C      3.092735     -1.072827     2.743305
C      3.545079     -2.347635     2.362804
C      3.352584     -0.651995     4.055646
C      4.224309     -3.155743     3.257339
H      3.368117     -2.708805     1.355671
C      4.032612     -1.462664     4.951198
H      3.009762      0.329618     4.370724
C      4.472636     -2.720267     4.556600
H      4.566529     -4.136558     2.941390
H      4.220031     -1.111938     5.961420
H      5.005718     -3.358402     5.253768
C     -1.394127      0.565501    -2.698024
H     -0.723301     -0.082112    -2.126895
H     -0.788511      1.125255    -3.417818
C     -2.365005     -0.306799    -3.435704
C     -2.444972     -0.397962    -4.760581
H     -3.057618     -0.887992    -2.831313
H     -1.787295      0.162710    -5.417577
C     -3.417838     -1.255458    -5.473968
O     -3.498779     -1.333014    -6.674368
O     -4.229070     -1.962233    -4.651088
H     -4.815971     -2.477866    -5.222511
49
 -1042.02650046 -1041.67031600  1.41 1.04
C     -2.258382      2.113616     0.284715
C     -0.997092      2.614767    -0.463307
H     -3.100895      2.809607     0.259591
H     -1.113384      3.591516    -0.940313
C     -0.472260      1.621040    -1.487730
C      0.898171      1.293958    -1.434923
H     -0.880356      1.769788    -2.486749
H      1.390021      0.858139    -2.297644
C      1.580202      1.291061    -0.184772
C      1.037495      1.851378     0.923723
H      2.554661      0.813729    -0.118703
H      1.563833      1.783500     1.872464
C     -0.209074      2.678330     0.874650
C     -1.491446      2.217750     1.643669
H      0.062981      3.702718     1.154988
H     -1.898892      3.048657     2.228882
C     -2.699742      0.752586    -0.268415
H     -3.531240      0.918650    -0.960216
H     -3.089074      0.109409     0.526460
C     -1.584361      0.044150    -1.035490
C     -0.872668     -0.996953    -0.392106
H     -1.828491     -0.175053    -2.073678
H     -0.964929     -1.094296     0.683885
C      0.034888     -1.875263    -1.022101
C      0.363180     -1.854353    -2.348769
H      0.518603     -2.606720    -0.380691
H     -0.117195     -1.120352    -2.991860
C      1.326144     -2.719098    -3.014851
C      1.560254     -2.539555    -4.385915
C      2.041334     -3.733341    -2.355799
C      2.465625     -3.333570    -5.072560
H      1.018959     -1.759563    -4.914097
C      2.944357     -4.525721    -3.042291
H      1.886322     -3.907303    -1.296658
C      3.163366     -4.332018    -4.403870
H      2.627723     -3.172719    -6.133944
H      3.484786     -5.304951    -2.513449
H      3.872824     -4.956440    -4.936976
C     -1.394519      1.004632     2.567379
H     -0.781609      0.231743     2.095605
H     -2.389405      0.583458     2.743503
C     -0.764303      1.359726     3.880554
C     -1.327897      1.159837     5.069003
H      0.216383      1.828278     3.841841
H     -2.307769      0.704200     5.172839
C     -0.697066      1.527383     6.356501
O     -1.209390      1.356171     7.434340
O      0.530289      2.084822     6.223765
H      0.839040      2.282673     7.119524
49
 -1042.02589036 -1041.66965800  1.79 1.45
C     -0.686022      0.312336     2.772183
C      0.810493      0.675815     2.584647
H     -1.132330      0.690996     3.695092
H      1.240170      1.238044     3.417866
C      1.109006      1.404950     1.285389
C      2.155313      0.902637     0.485775
H      1.056206      2.489807     1.368032
H      2.628009      1.534934    -0.257828
C      2.394636     -0.500927     0.444879
C      1.858221     -1.337229     1.366647
H      2.996540     -0.908747    -0.363078
H      1.994592     -2.411835     1.271599
C      1.194406     -0.827811     2.607078
C     -0.292139     -1.196098     2.910178
H      1.840102     -1.090260     3.453839
H     -0.387686     -1.498858     3.958112
C     -1.500732      0.810252     1.568095
H     -2.030513      1.719854     1.867128
H     -2.273089      0.091156     1.282420
C     -0.627912      1.150669     0.360540
C     -0.573437      0.232737    -0.714195
H     -0.694902      2.189941     0.042911
H     -0.921971     -0.780582    -0.544706
C     -0.000457      0.488839    -1.979147
C      0.596706      1.659368    -2.353240
H     -0.023753     -0.331588    -2.690953
H      0.630584      2.477870    -1.637723
C      1.229628      1.936049    -3.634788
C      1.273652      1.011485    -4.691973
C      1.828939      3.187829    -3.836008
C      1.889067      1.331426    -5.889239
H      0.817295      0.034278    -4.578469
C      2.445775      3.507125    -5.035698
H      1.807419      3.916720    -3.030654
C      2.479431      2.579724    -6.069924
H      1.909664      0.602335    -6.693566
H      2.902380      4.483678    -5.164333
H      2.960715      2.825005    -7.011012
C     -0.966713     -2.271484     2.062938
H     -0.402659     -3.206090     2.152174
H     -0.932812     -1.992426     1.006514
C     -2.388738     -2.507706     2.474605
C     -2.881643     -3.687799     2.842553
H     -3.053038     -1.647614     2.481599
H     -2.273912     -4.587002     2.866522
C     -4.288285     -3.905167     3.247192
O     -4.742803     -4.975153     3.566775
O     -5.041754     -2.779632     3.228663
H     -5.931651     -3.041853     3.504594
