49
 -1042.03200927 -1041.66622900  0.00 0.00
C      0.394518     -2.656138    -1.159746
C     -0.399772     -3.901979    -1.639666
H      1.440243     -2.846887    -0.898654
H     -0.631447     -3.902167    -2.711671
C      0.214300     -5.217558    -1.259113
C     -0.373916     -6.070337    -0.418607
H      1.171501     -5.470558    -1.710494
H      0.097671     -7.022276    -0.190255
C     -1.667274     -5.768091     0.213622
C     -2.238658     -4.571480     0.073610
H     -2.146366     -6.544413     0.803418
H     -3.188968     -4.354670     0.555427
C     -1.568488     -3.483801    -0.705326
C     -0.577292     -2.545558     0.042316
H     -2.309295     -2.885842    -1.245322
H     -0.160721     -3.082218     0.901007
C      0.288208     -1.467826    -2.114746
H     -0.736990     -1.418766    -2.500483
H      0.935807     -1.649404    -2.981842
C      0.639382     -0.123396    -1.511009
C     -0.140760      0.983341    -1.835774
H      1.691749      0.030295    -1.291182
H     -1.047847      0.810500    -2.411704
C      0.020242      2.243468    -1.278301
C      0.985896      2.491939    -0.314294
H     -0.756609      2.977488    -1.462372
H      1.898911      1.904796    -0.347951
C      1.131503      3.769070     0.407976
C      0.092350      4.700713     0.513811
C      2.348532      4.067543     1.025580
C      0.281117      5.899844     1.183750
H     -0.876821      4.485722     0.076221
C      2.539301      5.268314     1.696721
H      3.161752      3.348696     0.967298
C      1.506011      6.192689     1.774149
H     -0.535893      6.611590     1.250869
H      3.498057      5.481972     2.158614
H      1.650477      7.133436     2.295785
C     -0.994813     -1.139118     0.451670
H     -1.524684     -1.165320     1.409686
H     -1.692531     -0.697717    -0.264385
C      0.251484     -0.284934     0.577103
C      0.301097      0.960532     1.205890
H      1.156564     -0.870731     0.731791
H      1.174405      1.206457     1.798573
C     -0.934865      1.658645     1.587579
O     -2.002073      1.596396     1.019370
O     -0.760634      2.434806     2.686871
H     -1.604367      2.882934     2.844190
49
 -1042.03005337 -1041.66409900  1.23 1.34
C      0.808358      1.110581     2.694724
C      0.123685     -0.036408     3.493875
H      1.158151      1.834732     3.438194
H      0.062462     -0.944438     2.890743
C      0.642960     -0.344185     4.863797
C      0.214942      0.342361     5.923752
H      1.398659     -1.118267     4.975911
H      0.613524      0.140333     6.913803
C     -0.802751      1.395555     5.784231
C     -1.446489      1.604144     4.633857
H     -1.033625      2.002529     6.655467
H     -2.195573      2.389967     4.563151
C     -1.195308      0.776411     3.406960
C     -0.592363      1.561647     2.208648
H     -2.092974      0.197916     3.159162
H     -0.753569      2.644396     2.226173
C      1.950903      0.859035     1.710032
H      2.695191      0.217025     2.200137
H      2.453202      1.817125     1.535121
C      1.606556      0.271462     0.353906
C      1.181757     -1.043051     0.176363
H      2.179312      0.706397    -0.457978
H      0.941062     -1.644970     1.048803
C      0.842577     -1.549470    -1.073415
C      0.976181     -0.798485    -2.231178
H      0.316975     -2.497677    -1.110471
H      1.747499     -0.035823    -2.263437
C      0.534433     -1.242973    -3.564065
C      1.092453     -0.648252    -4.698960
C     -0.437988     -2.233136    -3.747516
C      0.721801     -1.047070    -5.975574
H      1.836659      0.134020    -4.574731
C     -0.811634     -2.629364    -5.022345
H     -0.921215     -2.686109    -2.888591
C     -0.230341     -2.044333    -6.142480
H      1.177904     -0.577689    -6.841537
H     -1.566903     -3.399527    -5.145037
H     -0.523857     -2.360394    -7.138405
C     -1.028173      0.978205     0.867418
H     -2.027398      1.356748     0.626816
H     -1.139687     -0.106776     0.931109
C     -0.088716      1.317629    -0.267074
C     -0.372494      1.006359    -1.599371
H      0.466382      2.246585    -0.139605
H      0.057505      1.626166    -2.378517
C     -1.592974      0.286444    -1.990114
O     -2.214125     -0.518123    -1.331537
O     -1.983478      0.619308    -3.247659
H     -2.749458      0.063435    -3.452561
49
 -1042.02804364 -1041.66235500  2.49 2.43
C     -2.161483      1.792183    -0.706096
C     -3.708785      1.830840    -0.839727
H     -1.628705      2.552913    -1.285301
H     -4.228751      2.188554     0.057233
C     -4.212043      2.575092    -2.042072
C     -4.868335      1.976013    -3.037121
H     -4.034559      3.648128    -2.074645
H     -5.234231      2.559954    -3.877280
C     -5.129474      0.528477    -3.032981
C     -4.604265     -0.262912    -2.097070
H     -5.759933      0.116463    -3.815819
H     -4.794201     -1.333419    -2.110093
C     -3.704280      0.289679    -1.036996
C     -2.180055      0.376578    -1.337175
H     -3.866419     -0.229168    -0.086941
H     -2.035614      0.455383    -2.419624
C     -1.679528      1.789011     0.744405
H     -2.349485      1.153762     1.336076
H     -1.776006      2.803211     1.152379
C     -0.257375      1.309341     0.947102
C      0.031888      0.489555     2.034336
H      0.517280      1.976296     0.580162
H     -0.802780      0.136065     2.637570
C      1.269389     -0.095051     2.262796
C      2.332799      0.088951     1.390352
H      1.334471     -0.852339     3.036834
H      2.380847      1.029780     0.849783
C      3.635659     -0.590784     1.504897
C      4.753829     -0.029000     0.883723
C      3.803211     -1.793535     2.199459
C      6.004994     -0.623604     0.979649
H      4.639951      0.896387     0.325130
C      5.050766     -2.389795     2.295729
H      2.949423     -2.278423     2.660804
C      6.159012     -1.805826     1.691700
H      6.860890     -0.161253     0.498109
H      5.159987     -3.321141     2.842503
H      7.134813     -2.274261     1.771360
C     -1.212078     -0.642128    -0.748886
H     -1.182604     -1.539667    -1.376286
H     -1.534686     -0.969829     0.242803
C      0.165616     -0.011646    -0.682881
C      1.367789     -0.694558    -0.488343
H      0.273803      0.832633    -1.362285
H      2.236248     -0.349438    -1.037608
C      1.453378     -2.131965    -0.181496
O      2.319769     -2.860722    -0.602725
O      0.472041     -2.602861     0.633087
H      0.637817     -3.551922     0.721473
49
 -1042.02580064 -1041.65962900  3.90 4.14
C     -0.157995      2.229838    -1.996222
C      0.330811      3.305930    -0.983443
H     -0.444870      2.772412    -2.903338
H      0.948728      2.851587    -0.206088
C      0.984424      4.537602    -1.528299
C      0.250480      5.575540    -1.931074
H      2.068071      4.559516    -1.617978
H      0.721904      6.457518    -2.355041
C     -1.216244      5.555703    -1.819271
C     -1.860204      4.578098    -1.178152
H     -1.774392      6.374372    -2.265399
H     -2.945929      4.593001    -1.110401
C     -1.142003      3.440004    -0.512970
C     -1.430685      2.043358    -1.130935
H     -1.290269      3.490830     0.572202
H     -2.361972      1.963258    -1.700904
C      0.709461      1.041298    -2.414767
H      1.707183      1.419201    -2.675773
H      0.291486      0.637443    -3.343740
C      0.856248     -0.112215    -1.441256
C      1.582767     -0.029500    -0.257689
H      0.822145     -1.084588    -1.920681
H      1.959657      0.937229     0.066965
C      1.662496     -1.091013     0.637855
C      1.075389     -2.319908     0.376177
H      2.065735     -0.889486     1.624690
H      0.980075     -2.627278    -0.660169
C      1.032094     -3.445912     1.324595
C      1.214325     -3.286388     2.703026
C      0.783133     -4.732491     0.839656
C      1.181743     -4.379921     3.554220
H      1.378317     -2.297911     3.118418
C      0.751124     -5.828950     1.689698
H      0.620557     -4.873792    -0.225582
C      0.955537     -5.657163     3.052840
H      1.330693     -4.235171     4.619748
H      0.566487     -6.819509     1.286059
H      0.933213     -6.511144     3.722242
C     -1.344673      0.931528    -0.088523
H     -2.287554      0.903773     0.469111
H     -0.568967      1.157835     0.647014
C     -1.085138     -0.430917    -0.689448
C     -1.112090     -1.618680     0.044784
H     -1.424289     -0.544291    -1.718667
H     -1.358663     -2.531421    -0.487438
C     -1.467987     -1.724729     1.469828
O     -2.114264     -2.639853     1.922876
O     -1.020608     -0.719899     2.268348
H     -1.355491     -0.924748     3.152895
49
 -1042.02357558 -1041.65708100  5.29 5.74
C      0.740212     -2.681547     0.683295
C      0.889020     -3.634345     1.901555
H      1.323171     -2.966299    -0.198189
H     -0.001092     -4.240563     2.108745
C      2.100293     -4.519514     1.855232
C      3.099034     -4.419338     2.733820
H      2.136095     -5.274738     1.072799
H      3.946020     -5.097440     2.674824
C      3.090335     -3.413233     3.806875
C      2.144591     -2.475068     3.863404
H      3.878032     -3.450271     4.553996
H      2.153728     -1.729021     4.654233
C      1.077106     -2.393770     2.817955
C      1.359630     -1.549137     1.542563
H      0.125759     -2.085733     3.263591
H      2.440458     -1.506090     1.373862
C     -0.715288     -2.415297     0.297232
H     -1.310545     -2.305438     1.211624
H     -1.108904     -3.297429    -0.223806
C     -0.932154     -1.194457    -0.570472
C     -2.047662     -0.390255    -0.355433
H     -0.530844     -1.259745    -1.577355
H     -2.696932     -0.636224     0.484587
C     -2.278770      0.813688    -1.016643
C     -1.370633      1.329874    -1.933826
H     -3.107288      1.432510    -0.684394
H     -0.794957      0.620614    -2.520255
C     -1.495675      2.656992    -2.563581
C     -2.151242      3.724637    -1.941616
C     -0.920886      2.873711    -3.818428
C     -2.258165      4.953681    -2.574350
H     -2.564905      3.605565    -0.945973
C     -1.029274      4.103443    -4.453838
H     -0.391631      2.060260    -4.307822
C     -1.704700      5.147454    -3.835123
H     -2.771535      5.770626    -2.077107
H     -0.586440      4.245788    -5.434540
H     -1.792646      6.110452    -4.327940
C      0.746211     -0.164825     1.378137
H      1.347509      0.587362     1.900813
H     -0.247229     -0.140931     1.839455
C      0.686349      0.159784    -0.103800
C      0.463901      1.424913    -0.649613
H      1.381229     -0.436880    -0.691164
H      1.030979      1.695005    -1.533524
C      0.122154      2.612200     0.178331
O      0.686138      3.664641     0.056218
O     -0.858147      2.467779     1.104493
H     -1.300407      1.616614     0.981153
