49
 -1042.02536998 -1041.65879600  0.00 0.00
C     -0.702229      2.588498    -1.038555
C     -1.028071      3.618497    -2.153037
H      0.389626      2.492292    -1.026815
H     -2.053209      3.987351    -2.048966
C     -0.062340      4.737536    -2.389625
C      1.025051      4.545584    -3.137528
H     -0.245380      5.699885    -1.917978
H      1.745301      5.345495    -3.283585
C      1.288130      3.246869    -3.778788
C      0.384364      2.264816    -3.780382
H      2.246440      3.106513    -4.271722
H      0.608081      1.319228    -4.269191
C     -0.971662      2.416999    -3.152501
C     -1.257251      1.491870    -1.939815
H     -1.743885      2.402646    -3.929725
H     -2.350437      1.464513    -1.821125
C     -1.229779      2.555567     0.382021
H     -0.849936      3.396791     0.975317
H     -2.323410      2.630776     0.375264
C     -0.805965      1.238186     1.024706
C      0.544029      0.954595     1.231100
H     -1.523244      0.815352     1.720511
H      1.287314      1.626876     0.808663
C      1.000108     -0.235623     1.775753
C      0.120457     -1.232762     2.182464
H      2.062901     -0.446360     1.725833
H     -0.857702     -0.928220     2.541658
C      0.550065     -2.545680     2.701123
C      1.789553     -3.113805     2.385136
C     -0.312084     -3.266360     3.531738
C      2.159714     -4.342731     2.909363
H      2.465719     -2.598781     1.711210
C      0.059836     -4.494386     4.062540
H     -1.286109     -2.849304     3.774182
C      1.300669     -5.036708     3.755386
H      3.126137     -4.766027     2.653470
H     -0.621826     -5.028552     4.717100
H      1.595887     -5.996919     4.166245
C     -0.706599      0.108834    -1.669281
H     -1.002935     -0.602098    -2.451852
H      0.384301      0.110270    -1.641911
C     -1.279156     -0.384664    -0.349443
C     -0.912681     -1.599884     0.238906
H     -2.332496     -0.138321    -0.219530
H     -1.684586     -2.165556     0.748499
C      0.176271     -2.419083    -0.318487
O      1.200528     -2.020556    -0.824486
O     -0.076699     -3.744447    -0.180299
H      0.709188     -4.209007    -0.503560
49
 -1042.02106342 -1041.65432700  2.70 2.80
C     -0.980214      2.673058     0.072405
C     -1.147280      4.125122    -0.449898
H      0.006944      2.635263     0.547674
H     -2.196529      4.333044    -0.681537
C     -0.526712      5.237748     0.336090
C      0.766856      5.528542     0.191348
H     -1.139493      5.784711     1.048397
H      1.228188      6.312663     0.784865
C      1.609413      4.794149    -0.766522
C      1.093217      3.928065    -1.641103
H      2.679093      4.985774    -0.755956
H      1.743225      3.407414    -2.340815
C     -0.381269      3.655522    -1.730083
C     -0.819786      2.211007    -1.371608
H     -0.769994      4.026658    -2.684973
H     -1.820071      2.071713    -1.807027
C     -1.964942      1.857889     0.887306
H     -2.089832      2.267402     1.897611
H     -2.949988      1.873848     0.406578
C     -1.454088      0.423451     0.970810
C     -0.259888      0.131630     1.629845
H     -2.225984     -0.339189     0.964316
H      0.359762      0.956079     1.975717
C      0.279758     -1.142782     1.700201
C     -0.358570     -2.238535     1.127462
H      1.292529     -1.247083     2.075127
H     -1.443205     -2.218214     1.085556
C      0.197888     -3.603898     1.108832
C     -0.668118     -4.689743     0.953721
C      1.566991     -3.867603     1.227390
C     -0.194425     -5.994729     0.954310
H     -1.733485     -4.505912     0.842320
C      2.043032     -5.169529     1.223784
H      2.271177     -3.047963     1.321067
C      1.165494     -6.240366     1.092798
H     -0.889676     -6.821388     0.846078
H      3.108735     -5.351491     1.321921
H      1.541368     -7.258529     1.093507
C     -0.035031      0.927510    -1.541197
H      0.208583      0.739082    -2.595334
H      0.910170      0.977653    -0.998296
C     -0.895397     -0.223660    -1.042417
C     -0.476446     -1.556417    -0.987387
H     -1.945295     -0.112913    -1.310790
H     -1.223707     -2.312675    -1.200770
C      0.865497     -2.015821    -1.398954
O      1.053962     -3.010264    -2.057505
O      1.900172     -1.243577    -0.979524
H      2.697377     -1.652713    -1.345338
49
 -1042.01804883 -1041.65185800  4.59 4.35
C      0.849064     -2.383769    -1.353225
C      1.007558     -3.348252    -2.558890
H     -0.161221     -2.552068    -0.962309
H      2.062467     -3.455999    -2.829685
C      0.315891     -4.674633    -2.502438
C     -0.974491     -4.778459    -2.822849
H      0.873629     -5.545748    -2.167570
H     -1.488150     -5.732870    -2.750755
C     -1.743424     -3.606881    -3.273698
C     -1.157290     -2.437554    -3.538775
H     -2.816678     -3.719970    -3.401594
H     -1.753891     -1.593130    -3.876613
C      0.326457     -2.235307    -3.421065
C      0.781643     -1.222215    -2.337325
H      0.757689     -2.066310    -4.414048
H      1.808608     -0.927632    -2.599116
C      1.809784     -2.166295    -0.201964
H      1.870043     -3.046852     0.449711
H      2.818248     -1.979061    -0.588722
C      1.335021     -0.960873     0.605727
C      0.119268     -1.003711     1.289464
H      2.130279     -0.356959     1.030664
H     -0.545833     -1.846366     1.115772
C     -0.379239      0.059170     2.027112
C      0.329416      1.246752     2.155191
H     -1.409613      0.011534     2.361746
H      1.413183      1.195698     2.117447
C     -0.175251      2.441264     2.857920
C     -1.540094      2.688979     3.045497
C      0.738714      3.377944     3.350981
C     -1.966402      3.812722     3.735447
H     -2.276369      2.009571     2.630930
C      0.312482      4.502132     4.045707
H      1.802374      3.211209     3.200587
C     -1.044135      4.721308     4.244794
H     -3.029140      3.986004     3.873310
H      1.041447      5.207489     4.432385
H     -1.383751      5.598348     4.786412
C      0.043117     -0.005206    -1.826484
H     -0.126436      0.728773    -2.625091
H     -0.937463     -0.269405    -1.428076
C      0.895954      0.661477    -0.757162
C      0.464848      1.773867    -0.023545
H      1.954848      0.694599    -1.012398
H      1.216754      2.521576     0.215041
C     -0.931653      2.256406    -0.112104
O     -1.905019      1.558661    -0.228411
O     -1.091533      3.604138    -0.031967
H     -0.241707      4.045900     0.074032
49
 -1042.01634415 -1041.64937600  5.66 5.91
C     -0.823429      1.346522     2.326439
C     -0.912681      2.528371     3.328753
H      0.149037      0.869078     2.498237
H     -1.948086      2.868441     3.429818
C     -0.251708      2.377731     4.663443
C      1.055055      2.605727     4.801133
H     -0.847875      2.050142     5.511538
H      1.544076      2.464222     5.760673
C      1.874533      3.047760     3.661047
C      1.330368      3.393583     2.492468
H      2.951215      3.102614     3.797973
H      1.964602      3.726137     1.673693
C     -0.153603      3.378924     2.259088
C     -0.654660      2.360929     1.199928
H     -0.516219      4.402739     2.114839
H     -1.649731      2.700357     0.877486
C     -1.870742      0.281244     2.069195
H     -1.992593     -0.377707     2.938017
H     -2.842543      0.751341     1.880139
C     -1.447687     -0.538095     0.856741
C     -0.341241     -1.382671     0.920986
H     -2.253645     -0.815409     0.185827
H      0.268543     -1.375500     1.822739
C      0.115880     -2.122825    -0.163882
C     -0.509339     -2.049245    -1.409914
H      1.044794     -2.677546    -0.063458
H     -1.579903     -1.871943    -1.412476
C     -0.037071     -2.757953    -2.614384
C      1.304055     -3.099736    -2.818126
C     -0.960661     -3.090968    -3.609368
C      1.696463     -3.780985    -3.960520
H      2.056442     -2.820647    -2.088755
C     -0.569993     -3.776399    -4.751310
H     -2.004637     -2.818692    -3.477674
C      0.761962     -4.128274    -4.929311
H      2.741708     -4.039199    -4.098676
H     -1.307367     -4.036491    -5.504290
H      1.072318     -4.663371    -5.821060
C      0.098984      1.846480    -0.007357
H      0.344750      2.655782    -0.708005
H      1.049009      1.407564     0.306282
C     -0.784069      0.852368    -0.748946
C     -0.353936      0.095533    -1.844909
H     -1.816180      1.189821    -0.826352
H     -1.053691     -0.022270    -2.665071
C      1.056220      0.143927    -2.329003
O      1.334033      0.428579    -3.461123
O      2.034214     -0.137021    -1.434754
H      1.635031     -0.492971    -0.627754
