49
 -1042.02515466 -1041.65859200  0.00 0.00
C      1.447227     -0.602423     2.344568
C      1.541128     -1.093983     3.812220
H      1.792216     -1.433358     1.717074
H      2.348911     -1.809526     4.002313
C      1.556020     -0.023187     4.866178
C      0.577529      0.112160     5.762969
H      2.419229      0.638111     4.899207
H      0.643164      0.881065     6.528225
C     -0.602727     -0.767673     5.767375
C     -0.818669     -1.635435     4.777832
H     -1.298651     -0.690075     6.597852
H     -1.695983     -2.277374     4.788380
C      0.116761     -1.709087     3.612410
C     -0.071206     -0.689608     2.454778
H      0.187900     -2.726990     3.217355
H     -0.430997      0.236163     2.924530
C      1.944190      0.701477     1.753239
H      3.040451      0.758150     1.743415
H      1.582906      1.542153     2.355361
C      1.417824      0.819661     0.325966
C      1.816799     -0.093681    -0.650333
H      1.175523      1.827479     0.005792
H      2.398652     -0.959847    -0.342606
C      1.355248     -0.069090    -1.956661
C      0.457985      0.900759    -2.390505
H      1.569382     -0.924460    -2.588246
H      0.510112      1.879008    -1.922075
C     -0.130276      0.938880    -3.744112
C     -0.629280      2.147336    -4.236019
C     -0.224156     -0.194371    -4.560043
C     -1.172999      2.236066    -5.510738
H     -0.579920      3.034469    -3.609956
C     -0.768824     -0.107692    -5.832334
H      0.120842     -1.156104    -4.196016
C     -1.240900      1.107493    -6.316804
H     -1.543701      3.189317    -5.874293
H     -0.829987     -0.997314    -6.451582
H     -1.663967      1.171071    -7.314304
C     -0.800669     -0.900689     1.146291
H     -1.862192     -1.120191     1.320104
H     -0.389928     -1.743908     0.587042
C     -0.718596      0.380968     0.332072
C     -1.212081      0.497075    -0.972403
H     -0.867304      1.278198     0.931567
H     -1.683364      1.433824    -1.249803
C     -1.720272     -0.677524    -1.704780
O     -1.291897     -1.808030    -1.658030
O     -2.766804     -0.348657    -2.502043
H     -3.004646     -1.150605    -2.990429
49
 -1042.02095576 -1041.65418000  2.63 2.77
C      1.096044      0.252641     2.552937
C      0.972126      0.360338     4.094922
H      1.400374     -0.779127     2.337537
H      1.660768     -0.283375     4.653541
C      1.006582      1.751184     4.662494
C     -0.037722      2.294146     5.290766
H      1.936358      2.308553     4.571102
H      0.040309      3.292286     5.713600
C     -1.310997      1.573379     5.452252
C     -1.525640      0.408423     4.839188
H     -2.076331      2.016829     6.082837
H     -2.471193     -0.113898     4.961501
C     -0.487832     -0.178048     3.935013
C     -0.425283      0.325878     2.466513
H     -0.501205     -1.271832     3.963400
H     -0.718197      1.384164     2.497310
C      1.814187      1.186187     1.598574
H      2.903194      1.151394     1.732568
H      1.498781      2.218687     1.783690
C      1.465415      0.784576     0.169360
C      1.850097     -0.458583    -0.331950
H      1.379207      1.607545    -0.532381
H      2.293760     -1.179246     0.351981
C      1.527112     -0.903206    -1.604284
C      0.797016     -0.114651    -2.487799
H      1.711311     -1.946129    -1.839299
H      0.924746      0.961228    -2.415522
C      0.353914     -0.552739    -3.825545
C      0.029456      0.410150    -4.784057
C      0.225953     -1.900642    -4.178724
C     -0.374632      0.047476    -6.061973
H      0.105781      1.462636    -4.523942
C     -0.178188     -2.265550    -5.453802
H      0.441890     -2.675593    -3.451265
C     -0.475979     -1.294701    -6.403660
H     -0.610121      0.815648    -6.791868
H     -0.265171     -3.317135    -5.708884
H     -0.789905     -1.584185    -7.401480
C     -1.029805     -0.324058     1.240256
H     -2.122097     -0.391618     1.327789
H     -0.652408     -1.340654     1.112994
C     -0.707080      0.539888     0.030536
C     -1.042743      0.213397    -1.288165
H     -0.791133      1.605147     0.241028
H     -1.333574      1.034254    -1.935306
C     -1.737767     -1.030198    -1.675593
O     -2.649504     -1.060622    -2.466503
O     -1.278448     -2.163102    -1.084911
H     -1.841424     -2.877146    -1.416780
