49
 -1042.02425746 -1041.65712100  0.00 0.00
C     -1.674739      1.839406    -1.635267
C     -2.065729      2.198877    -3.096257
H     -1.362949      2.764181    -1.134544
H     -2.418528      3.228116    -3.226693
C     -3.012426      1.254365    -3.779968
C     -2.657741      0.523990    -4.839180
H     -4.031015      1.202526    -3.402229
H     -3.385993     -0.120555    -5.324187
C     -1.298314      0.575089    -5.401053
C     -0.324029      1.249063    -4.788950
H     -1.106544      0.045315    -6.329795
H      0.677588      1.275642    -5.211549
C     -0.574999      1.944207    -3.487446
C     -0.441078      1.120061    -2.176944
H      0.007762      2.867813    -3.414892
H     -0.723445      0.086895    -2.411657
C     -2.498878      0.991729    -0.677361
H     -3.198818      1.605277    -0.100989
H     -3.093247      0.267129    -1.247067
C     -1.580784      0.221275     0.254696
C     -1.812442      0.197598     1.627557
H     -1.101411     -0.641276    -0.198830
H     -2.584180      0.851348     2.029073
C     -0.988272     -0.460301     2.526032
C      0.144786     -1.160912     2.105317
H     -1.150368     -0.299581     3.587631
H      0.112631     -1.655001     1.138332
C      1.077375     -1.787118     3.066219
C      1.337242     -1.225242     4.319840
C      1.742946     -2.966427     2.720266
C      2.202005     -1.842899     5.211489
H      0.859793     -0.292320     4.603900
C      2.605830     -3.587486     3.612614
H      1.577974     -3.401410     1.738868
C      2.835757     -3.031120     4.864491
H      2.387379     -1.392347     6.181576
H      3.101065     -4.510973     3.328746
H      3.509761     -3.516103     5.563376
C      0.784675      1.131562    -1.272780
H      1.451899      0.306112    -1.519210
H      1.345760      2.063732    -1.430216
C      0.427037      1.113607     0.210727
C      1.226076      0.473931     1.174102
H     -0.015862      2.040458     0.562039
H      1.354199      0.975020     2.126683
C      2.373798     -0.368069     0.779209
O      2.402961     -1.167747    -0.130365
O      3.436517     -0.181305     1.595467
H      4.118976     -0.806136     1.309180
49
 -1042.02005856 -1041.65308300  2.63 2.53
C     -1.759912      1.526865    -1.824189
C     -2.241563      1.594745    -3.301032
H     -1.429661      2.531188    -1.531508
H     -2.611952      2.579363    -3.607927
C     -3.218548      0.536686    -3.727574
C     -2.921190     -0.388771    -4.642100
H     -4.212187      0.563004    -3.286182
H     -3.671161     -1.114279    -4.945767
C     -1.598724     -0.452551    -5.284679
C     -0.596213      0.327130    -4.878076
H     -1.457991     -1.155416    -6.100871
H      0.377778      0.268095    -5.358057
C     -0.775118      1.265977    -3.726385
C     -0.551084      0.717036    -2.290137
H     -0.199209      2.184919    -3.874109
H     -0.828856     -0.343644    -2.296566
C     -2.521499      0.883506    -0.673673
H     -3.187266      1.602626    -0.185536
H     -3.147470      0.069421    -1.058693
C     -1.549062      0.296769     0.332906
C     -1.691725      0.543246     1.696261
H     -1.104865     -0.645529     0.027246
H     -2.435102      1.273124     2.010761
C     -0.810696      0.063223     2.651525
C      0.295264     -0.717826     2.303735
H     -0.901290      0.432356     3.668803
H      0.193592     -1.395735     1.462083
C      1.289776     -1.153726     3.305303
C      1.655991     -0.346172     4.386088
C      1.910957     -2.398759     3.173249
C      2.580416     -0.785353     5.322752
H      1.214061      0.639280     4.497873
C      2.833600     -2.841700     4.110511
H      1.656841     -3.031364     2.327297
C      3.169567     -2.038208     5.192759
H      2.847675     -0.144052     6.156839
H      3.291369     -3.819432     3.996004
H      3.890516     -2.382650     5.927279
C      0.727729      0.916397    -1.486542
H      1.410007      0.082357    -1.642648
H      1.240601      1.821903    -1.840023
C      0.459814      1.151177    -0.001960
C      1.311842      0.700804     1.020872
H      0.022829      2.123952     0.200776
H      1.475861      1.378589     1.850785
C      2.512358     -0.127397     0.773461
O      3.601241      0.117208     1.229463
O      2.297561     -1.232818     0.006542
H      3.155098     -1.675563    -0.066946
