49
 -1042.03473676 -1041.66839800  0.00 0.00
C     -1.147471     -2.611285     0.523553
C     -2.149770     -3.390804     1.421004
H     -0.961469     -3.061155    -0.456731
H     -1.688336     -3.900244     2.275548
C     -3.028512     -4.350952     0.673524
C     -4.351377     -4.197883     0.588655
H     -2.546212     -5.203219     0.199619
H     -4.951407     -4.930930     0.056344
C     -5.041728     -3.058754     1.212807
C     -4.356665     -2.059273     1.769297
H     -6.127892     -3.048466     1.204601
H     -4.877337     -1.217918     2.220388
C     -2.860294     -2.048662     1.749024
C     -2.141914     -1.423428     0.520568
H     -2.466938     -1.610180     2.671732
H     -2.796394     -1.500618    -0.353519
C      0.171873     -2.293033     1.227186
H     -0.037281     -2.052522     2.276698
H      0.791502     -3.198804     1.238457
C      0.968523     -1.155198     0.624748
C      1.543786     -0.215236     1.473493
H      1.439367     -1.356980    -0.332192
H      1.317653     -0.287697     2.535984
C      2.196193      0.931735     1.039232
C      2.336420      1.222344    -0.311536
H      2.462002      1.681015     1.778614
H      2.391203      0.392947    -1.010723
C      2.933902      2.474679    -0.809888
C      2.845294      3.678274    -0.102915
C      3.601942      2.476081    -2.037694
C      3.435953      4.834078    -0.591557
H      2.304542      3.714340     0.837775
C      4.195261      3.631687    -2.526434
H      3.657545      1.556077    -2.612708
C      4.119110      4.815048    -1.802896
H      3.359068      5.758027    -0.026951
H      4.720499      3.607703    -3.476241
H      4.583329      5.719432    -2.182953
C     -1.540291     -0.026529     0.594348
H     -2.310995      0.725627     0.390526
H     -1.155084      0.187181     1.597336
C     -0.436768      0.086046    -0.438307
C      0.139456      1.299228    -0.798150
H     -0.504706     -0.624581    -1.259552
H     -0.054728      2.188398    -0.209150
C      0.424074      1.512137    -2.228961
O      0.722245      0.651884    -3.027824
O      0.318126      2.814216    -2.583307
H      0.554703      2.866163    -3.520877
49
 -1042.03391133 -1041.66814300  0.52 0.16
C     -1.426111     -2.478823     0.862151
C     -1.712857     -2.017295     2.321817
H     -1.943306     -3.436237     0.738170
H     -0.976498     -1.279343     2.647134
C     -1.902806     -3.073982     3.364958
C     -3.096799     -3.635822     3.556337
H     -1.040590     -3.399819     3.941907
H     -3.227452     -4.423214     4.293134
C     -4.268931     -3.209888     2.775096
C     -4.224875     -2.156802     1.956982
H     -5.191392     -3.772815     2.888384
H     -5.110777     -1.865284     1.396525
C     -2.991308     -1.319428     1.783944
C     -2.372742     -1.359250     0.359174
H     -3.175150     -0.308446     2.166694
H     -3.052707     -1.663307    -0.442633
C     -0.007603     -2.637817     0.311355
H      0.573847     -3.233852     1.027540
H     -0.073232     -3.243040    -0.599135
C      0.762020     -1.376626    -0.028985
C      1.209460     -0.482795     0.937447
H      1.342357     -1.450337    -0.942425
H      0.906313     -0.625116     1.971339
C      1.847576      0.711154     0.606667
C      2.166381      1.030997    -0.704496
H      1.979388      1.456520     1.385649
H      2.377404      0.218128    -1.392676
C      2.710020      2.333637    -1.118292
C      2.428291      3.516338    -0.425951
C      3.528900      2.407206    -2.249170
C      2.977375      4.723624    -0.831860
H      1.768204      3.494015     0.435742
C      4.080912      3.613904    -2.653934
H      3.738734      1.501183    -2.811266
C      3.811106      4.777455    -1.943818
H      2.750439      5.630549    -0.280107
H      4.725167      3.646391    -3.527156
H      4.242201      5.722487    -2.258239
C     -1.682902     -0.048490    -0.008048
H     -2.441398      0.661075    -0.359890
H     -1.230053      0.407775     0.879669
C     -0.623097     -0.192120    -1.076995
C      0.011000      0.940590    -1.571721
H     -0.750753     -1.003350    -1.790484
H     -0.200793      1.913270    -1.143932
C      0.509198      0.911437    -2.952431
O      0.896935     -0.078148    -3.536465
O      0.507684      2.133617    -3.534210
H      0.873223      2.020093    -4.423500
49
 -1042.03220665 -1041.66582100  1.59 1.62
C     -0.951222      0.355578    -2.683121
C     -0.576636      0.862500    -4.104381
H     -1.743175     -0.399621    -2.657489
H     -0.902313      1.887695    -4.318020
C     -1.007609     -0.048087    -5.217070
C     -0.137184     -0.678511    -6.008010
H     -2.076958     -0.174693    -5.372055
H     -0.494637     -1.310331    -6.816581
C      1.316077     -0.536142    -5.830370
C      1.821014      0.118014    -4.783867
H      1.971186     -0.983536    -6.572388
H      2.897170      0.209988    -4.657832
C      0.924481      0.702374    -3.737791
C      0.488601     -0.200286    -2.549576
H      1.339212      1.641325    -3.357411
H      0.505096     -1.246336    -2.871952
C     -1.255570      1.485078    -1.699429
H     -0.569326      2.318215    -1.894644
H     -2.264837      1.865660    -1.902823
C     -1.150753      1.110220    -0.237445
C     -0.525681      1.987995     0.640772
H     -1.926807      0.451856     0.140221
H     -0.056996      2.875955     0.219632
C     -0.263383      1.705060     1.975395
C     -0.618470      0.489111     2.546769
H      0.372706      2.389821     2.527981
H     -1.492139     -0.021082     2.153327
C     -0.271712      0.114992     3.929368
C      0.897078      0.561036     4.554140
C     -1.122353     -0.730063     4.646715
C      1.184041      0.203684     5.863201
H      1.593501      1.191837     4.010370
C     -0.838422     -1.087197     5.957199
H     -2.023366     -1.105770     4.169510
C      0.314523     -0.617394     6.573192
H      2.094695      0.563267     6.331963
H     -1.521019     -1.733467     6.500158
H      0.538432     -0.894074     7.598459
C      1.153138     -0.068908    -1.186377
H      2.081135     -0.652019    -1.163308
H      1.434329      0.969167    -0.978659
C      0.208296     -0.586985    -0.120565
C      0.614259     -0.801038     1.192412
H     -0.544921     -1.281518    -0.485191
H      1.569798     -0.408156     1.521723
C      0.232950     -2.044721     1.883146
O      0.939439     -2.647470     2.652871
O     -1.017173     -2.487763     1.565699
H     -1.138496     -3.315257     2.052129
49
 -1042.03132739 -1041.66562700  2.14 1.74
C     -0.502978     -0.700700    -2.821021
C      0.517683      0.302445    -3.435416
H     -0.884095     -1.297197    -3.656784
H      0.681589      1.148889    -2.765287
C      0.279349      0.772864    -4.836480
C      0.710041      0.059697    -5.877531
H     -0.281750      1.691457    -4.990880
H      0.511132      0.386722    -6.894107
C      1.462486     -1.189703    -5.681205
C      1.870117     -1.583584    -4.473344
H      1.694192     -1.790426    -6.556477
H      2.428673     -2.510783    -4.362648
C      1.611063     -0.780869    -3.231820
C      0.685943     -1.471777    -2.192131
H      2.561662     -0.421689    -2.819819
H      0.616271     -2.560921    -2.273887
C     -1.701234     -0.248426    -1.983427
H     -2.221082      0.548793    -2.531693
H     -2.404723     -1.086644    -1.934715
C     -1.432193      0.212879    -0.564950
C     -0.743961      1.383537    -0.270843
H     -2.173247     -0.119386     0.154144
H     -0.283605      1.944430    -1.079927
C     -0.426981      1.754808     1.034037
C     -0.861422      1.031013     2.135591
H      0.291398      2.557019     1.176173
H     -1.812701      0.512721     2.064171
C     -0.416287      1.305414     3.510731
C      0.841891      1.848884     3.793048
C     -1.260652      1.004562     4.582937
C      1.223813      2.115005     5.099546
H      1.533292      2.060420     2.983214
C     -0.881657      1.272247     5.889864
H     -2.229592      0.554407     4.385584
C      0.361415      1.833961     6.153840
H      2.202606      2.540331     5.298170
H     -1.559499      1.041704     6.705793
H      0.660045      2.045191     7.175605
C      1.028909     -1.075452    -0.759079
H      1.871023     -1.688283    -0.415531
H      1.374830     -0.036352    -0.719605
C     -0.117282     -1.243851     0.212461
C      0.092713     -1.002136     1.565011
H     -0.846443     -2.012299    -0.031688
H      1.054193     -0.633460     1.901308
C     -0.656601     -1.746439     2.583873
O     -0.248123     -2.042047     3.679989
O     -1.915565     -2.088863     2.175266
H     -2.304651     -2.598118     2.899933
49
 -1042.02798981 -1041.66228200  4.23 3.84
C     -1.245198     -2.589227     0.415906
C     -2.264719     -3.351296     1.308888
H     -1.099596     -3.014888    -0.581760
H     -1.810893     -3.908417     2.137335
C     -3.200412     -4.246056     0.549538
C     -4.516237     -4.030753     0.496612
H     -2.766616     -5.103335     0.039211
H     -5.159221     -4.718347    -0.046095
C     -5.141790     -2.882464     1.170383
C     -4.401384     -1.933444     1.743988
H     -6.226309     -2.822979     1.184725
H     -4.874310     -1.084513     2.231933
C     -2.906748     -1.989745     1.693560
C     -2.184149     -1.358081     0.470982
H     -2.476236     -1.599652     2.621421
H     -2.857708     -1.377196    -0.391616
C      0.100680     -2.354144     1.101985
H     -0.077789     -2.144872     2.163760
H      0.680850     -3.284902     1.067093
C      0.935534     -1.228427     0.526846
C      1.559019     -0.344567     1.403848
H      1.394024     -1.419450    -0.438157
H      1.338353     -0.444868     2.465194
C      2.256506      0.787946     1.004368
C      2.410322      1.116527    -0.335348
H      2.553642      1.502286     1.766233
H      2.434114      0.313080    -1.065782
C      3.031781      2.373538    -0.788861
C      2.925686      3.561315    -0.055888
C      3.727023      2.402958    -2.000971
C      3.528700      4.728016    -0.503482
H      2.365289      3.574935     0.874335
C      4.334971      3.567773    -2.445732
H      3.786322      1.499379    -2.600374
C      4.243037      4.734367    -1.696462
H      3.438471      5.639257     0.079486
H      4.882381      3.565631    -3.383113
H      4.718363      5.645866    -2.044209
C     -1.515813      0.006348     0.574929
H     -2.250695      0.800341     0.400314
H     -1.108772      0.173362     1.578192
C     -0.419954      0.087664    -0.469389
C      0.199675      1.281823    -0.821989
H     -0.532267     -0.598621    -1.305744
H      0.052232      2.156134    -0.193204
C      0.502052      1.501709    -2.256336
O      0.717859      0.619534    -3.048001
O      0.525770      2.794271    -2.670051
H      0.394164      3.396183    -1.928503
