49
 -1042.03138123 -1041.66496000  0.00 0.00
C     -0.083089     -1.325062     3.234200
C      1.269751     -0.782166     3.777751
H     -0.581005     -1.822626     4.073124
H      1.639820     -1.333141     4.650566
C      2.401361     -0.635711     2.801316
C      2.955946      0.545886     2.526866
H      2.798723     -1.541930     2.349570
H      3.805587      0.607302     1.852178
C      2.443359      1.795619     3.111516
C      1.326085      1.809926     3.839086
H      2.989443      2.714667     2.918891
H      0.946603      2.746079     4.241535
C      0.553120      0.555217     4.103658
C     -0.613672      0.129847     3.146403
H      0.191284      0.554207     5.136083
H     -1.612941      0.262313     3.572718
C     -0.152774     -2.270469     2.036570
H      0.613866     -3.047012     2.167329
H     -1.116121     -2.792778     2.061048
C      0.013608     -1.655509     0.666748
C     -0.425067     -2.348184    -0.456272
H      0.859704     -0.985098     0.556036
H     -1.010358     -3.253387    -0.307403
C     -0.384051     -1.817496    -1.740451
C      0.083639     -0.536577    -1.982425
H     -0.915113     -2.350408    -2.521724
H      0.827162     -0.125129    -1.307171
C      0.031791      0.139937    -3.289642
C     -0.806622     -0.279473    -4.329204
C      0.845280      1.254515    -3.510101
C     -0.802460      0.374951    -5.551190
H     -1.476764     -1.119739    -4.181737
C      0.850757      1.911059    -4.733485
H      1.491794      1.603325    -2.709027
C      0.028943      1.469996    -5.762274
H     -1.457079      0.031345    -6.346220
H      1.499803      2.768150    -4.882954
H      0.030701      1.978332    -6.721204
C     -0.568203      0.779119     1.765922
H     -1.024193      1.773708     1.841567
H      0.466025      0.953951     1.457545
C     -1.288815     -0.000741     0.681337
C     -1.387843      0.573615    -0.581144
H     -2.126483     -0.623086     0.983790
H     -0.877253      1.507596    -0.791376
C     -2.568959      0.278684    -1.404044
O     -3.277946     -0.698063    -1.312855
O     -2.815296      1.254282    -2.314308
H     -3.592049      0.970154    -2.817145
49
 -1042.02842047 -1041.66239000  1.86 1.61
C     -1.092423      1.820465     2.168753
C     -0.984786      3.211736     2.877311
H     -1.989690      1.252170     2.432993
H     -1.973120      3.509810     3.239971
C      0.031030      3.423249     3.957422
C      1.236162      3.927336     3.690735
H     -0.232308      3.140881     4.974176
H      1.966449      4.063744     4.483210
C      1.623853      4.291060     2.318418
C      0.756583      4.238868     1.305958
H      2.648618      4.607304     2.143706
H      1.075971      4.508243     0.301751
C     -0.685640      3.866583     1.498622
C     -1.177993      2.560080     0.810636
H     -1.303988      4.740652     1.265695
H     -2.226407      2.680877     0.518140
C      0.141421      0.925220     2.291506
H      1.040304      1.545227     2.243940
H      0.139756      0.467331     3.287127
C      0.261932     -0.155413     1.230378
C     -0.263193     -1.437233     1.384783
H      1.163704     -0.072028     0.634161
H     -0.948053     -1.629395     2.208901
C     -0.108707     -2.420395     0.414329
C      0.638782     -2.200800    -0.733861
H     -0.714611     -3.316111     0.495153
H      1.465381     -1.499152    -0.684735
C      0.756147     -3.166375    -1.840652
C      1.837701     -3.066749    -2.719780
C     -0.183228     -4.180103    -2.062361
C      2.000545     -3.965725    -3.764704
H      2.566245     -2.273759    -2.573401
C     -0.023636     -5.076391    -3.108029
H     -1.056446     -4.260549    -1.423964
C      1.071087     -4.978900    -3.960421
H      2.855370     -3.874037    -4.427370
H     -0.762070     -5.856945    -3.263275
H      1.193685     -5.684888    -4.775627
C     -0.421430      1.920541    -0.345572
H     -0.668198      2.431037    -1.283765
H      0.660615      2.016989    -0.212063
C     -0.838514      0.459628    -0.445225
C     -0.509410     -0.333866    -1.538998
H     -1.821649      0.247440    -0.030946
H      0.278411     -0.025019    -2.219001
C     -1.551517     -1.202965    -2.109698
O     -2.517277     -1.644646    -1.529313
O     -1.327434     -1.464505    -3.421499
H     -2.028021     -2.070517    -3.703514
49
 -1042.02861785 -1041.66216900  1.73 1.75
C     -0.270330     -0.543685     3.402333
C      0.893232      0.356618     3.908141
H     -0.780652     -0.925377     4.292997
H      1.237310      0.096705     4.916315
C      2.098054      0.494941     3.022329
C      2.477213      1.668693     2.514800
H      2.694700     -0.395943     2.839382
H      3.382439      1.739104     1.917744
C      1.693919      2.895506     2.733355
C      0.507877      2.857948     3.341503
H      2.098779      3.835218     2.368657
H     -0.069957      3.769770     3.472034
C     -0.071700      1.569938     3.838193
C     -1.021094      0.725456     2.919381
H     -0.555837      1.730447     4.805993
H     -2.073782      0.755745     3.217409
C     -0.028240     -1.730399     2.471261
H      0.833763     -2.295290     2.853065
H     -0.886301     -2.409014     2.541179
C      0.206922     -1.415697     1.012938
C      0.052318     -2.410655     0.054120
H      0.928053     -0.628485     0.818546
H     -0.364332     -3.367248     0.364665
C      0.163486     -2.170657    -1.310603
C      0.419813     -0.901250    -1.805536
H     -0.139650     -2.960416    -1.990215
H      0.983738     -0.217654    -1.178608
C      0.437358     -0.539032    -3.232588
C      1.073616      0.642480    -3.622169
C     -0.163430     -1.320350    -4.225608
C      1.139808      1.019078    -4.956849
H      1.532980      1.270318    -2.863125
C     -0.099003     -0.946925    -5.558471
H     -0.700974     -2.223300    -3.957059
C      0.556723      0.221258    -5.932394
H      1.649276      1.936456    -5.234352
H     -0.568850     -1.569605    -6.313368
H      0.606656      0.508955    -6.977714
C     -0.913526      1.047393     1.431445
H     -1.534613      1.927644     1.225487
H      0.106743      1.343048     1.173133
C     -1.355267     -0.078897     0.515071
C     -1.381703      0.166439    -0.853820
H     -2.104673     -0.761457     0.903655
H     -1.002777      1.110008    -1.232386
C     -2.394975     -0.441150    -1.727994
O     -2.759052      0.020184    -2.783827
O     -2.932550     -1.592018    -1.237896
H     -3.601511     -1.864845    -1.880553
49
 -1042.02553148 -1041.65940000  3.67 3.49
C     -0.809553      1.106333     2.667388
C     -0.675800      2.283818     3.689663
H     -1.615337      0.402503     2.898389
H     -1.609349      2.381983     4.251849
C      0.485800      2.324737     4.634284
C      1.598768      2.997460     4.340460
H      0.407589      1.776357     5.570234
H      2.437444      3.007661     5.030719
C      1.737132      3.723903     3.068084
C      0.722690      3.835203     2.208676
H      2.698997      4.174301     2.838647
H      0.858595      4.373394     1.273316
C     -0.644030      3.284640     2.499584
C     -1.160257      2.145319     1.573397
H     -1.344207      4.122609     2.590007
H     -2.247893      2.228315     1.475225
C      0.481114      0.336999     2.381197
H      1.320334      1.037197     2.369789
H      0.667082     -0.348390     3.215884
C      0.494287     -0.432152     1.072539
C      0.081925     -1.757245     0.958792
H      1.273344     -0.108165     0.391377
H     -0.436625     -2.221640     1.796017
C      0.128475     -2.443395    -0.249299
C      0.648499     -1.864657    -1.399387
H     -0.389170     -3.394325    -0.314073
H      1.432125     -1.122120    -1.285916
C      0.638376     -2.501482    -2.727922
C      1.523453     -2.045461    -3.707791
C     -0.234503     -3.542254    -3.063470
C      1.565930     -2.627136    -4.967218
H      2.194791     -1.224081    -3.471981
C     -0.195342     -4.124091    -4.320962
H     -0.958461     -3.899399    -2.338926
C      0.708144     -3.674457    -5.277600
H      2.270912     -2.261376    -5.707115
H     -0.878116     -4.933687    -4.559303
H      0.737981     -4.134450    -6.260194
C     -0.566523      1.892795     0.194523
H     -0.989721      2.596635    -0.531825
H      0.515770      2.055481     0.192358
C     -0.909471      0.471874    -0.230408
C     -0.690913      0.017886    -1.526858
H     -1.797554      0.071153     0.251496
H     -0.025207      0.575848    -2.178664
C     -1.741974     -0.696592    -2.267970
O     -1.892271     -0.630016    -3.464721
O     -2.579872     -1.432756    -1.489136
H     -3.237412     -1.805075    -2.093154
