49
 -1042.03064552 -1041.66471500  0.00 0.00
C     -2.169926     -0.282530     2.424445
C     -1.932184     -0.612568     3.937141
H     -3.201944     -0.004880     2.187116
H     -2.727401     -0.157137     4.534535
C     -1.717996     -2.027980     4.375176
C     -0.493252     -2.547529     4.464588
H     -2.589663     -2.635300     4.607024
H     -0.350757     -3.579873     4.770974
C      0.698095     -1.752415     4.126702
C      0.615995     -0.452024     3.839861
H      1.660910     -2.256068     4.111811
H      1.513255      0.107526     3.586078
C     -0.679185      0.303818     3.910668
C     -1.217557      0.929679     2.591671
H     -0.614325      1.021430     4.736954
H     -1.818367      1.799918     2.877915
C     -1.694946     -1.353165     1.445949
H     -0.842534     -1.900680     1.856257
H     -2.493522     -2.095913     1.325636
C     -1.310325     -0.788733     0.098941
C     -0.827097     -1.618128    -0.906245
H     -1.835808      0.117161    -0.195329
H     -0.642051     -2.663422    -0.667279
C     -0.320207     -1.138014    -2.109053
C     -0.244202      0.218998    -2.376746
H      0.195730     -1.839269    -2.755977
H     -0.963776      0.878000    -1.901563
C      0.396956      0.795651    -3.570316
C      0.070129      2.098460    -3.956102
C      1.332065      0.094907    -4.340895
C      0.625878      2.672911    -5.091339
H     -0.641543      2.664230    -3.360322
C      1.890287      0.667766    -5.472620
H      1.636289     -0.904665    -4.048214
C      1.536600      1.957229    -5.857560
H      0.345923      3.681740    -5.378121
H      2.611316      0.106123    -6.058577
H      1.973852      2.401811    -6.745821
C     -0.284293      1.386834     1.471509
H     -0.840641      2.067539     0.814168
H      0.508812      1.997689     1.923096
C      0.388754      0.343137     0.598049
C      1.044841      0.798071    -0.542082
H      0.832934     -0.515426     1.088658
H      0.970784      1.841302    -0.829343
C      2.238188      0.079776    -1.004109
O      2.506819     -1.078603    -0.776724
O      3.060516      0.867303    -1.742174
H      3.798573      0.305312    -2.018413
49
 -1042.02807953 -1041.66201200  1.61 1.70
C     -2.535110      0.179937     1.988595
C     -2.602966      0.719530     3.457634
H     -3.512476     -0.065923     1.561236
H     -3.610755      1.095398     3.657135
C     -2.148652     -0.138243     4.597385
C     -0.893550     -0.088119     5.044732
H     -2.864930     -0.820821     5.048391
H     -0.571657     -0.724849     5.863776
C      0.099143      0.807061     4.429269
C     -0.239815      1.690539     3.488721
H      1.131338      0.729413     4.760087
H      0.517692      2.333770     3.047070
C     -1.660985      1.882458     3.044552
C     -1.996632      1.569427     1.557690
H     -1.989950      2.878475     3.363331
H     -2.852302      2.198640     1.289154
C     -1.578344     -0.989411     1.770385
H     -0.743533     -0.941759     2.474509
H     -2.107929     -1.922008     2.002263
C     -1.031787     -1.041768     0.363821
C     -0.129210     -2.027278    -0.018490
H     -1.679433     -0.620858    -0.402190
H      0.238600     -2.714068     0.741630
C      0.518929     -2.022365    -1.248495
C      0.314465     -1.008750    -2.172937
H      1.326978     -2.730361    -1.402071
H     -0.643256     -0.498265    -2.162243
C      1.042500     -0.874737    -3.444953
C      0.480461     -0.106739    -4.468457
C      2.282654     -1.478216    -3.680193
C      1.111386      0.026249    -5.697845
H     -0.474101      0.384713    -4.298742
C      2.915791     -1.344992    -4.905120
H      2.769863     -2.044083    -2.893475
C      2.331668     -0.597469    -5.922661
H      0.648102      0.617441    -6.481511
H      3.876228     -1.824070    -5.067573
H      2.829504     -0.497801    -6.881864
C     -0.965091      1.730584     0.442236
H     -1.494400      1.767852    -0.518579
H     -0.495154      2.716585     0.556850
C      0.150727      0.708668     0.320811
C      0.931700      0.751478    -0.829958
H      0.646100      0.407428     1.235738
H      0.662056      1.427967    -1.633466
C      2.368322      0.438501    -0.799940
O      3.175859      0.832579    -1.607716
O      2.746295     -0.338606     0.252302
H      3.705657     -0.433138     0.179171
49
 -1042.02540587 -1041.65977000  3.29 3.10
C     -2.031583     -1.913449     1.144491
C     -2.182791     -2.715079     2.469296
H     -3.024020     -1.626569     0.781216
H     -3.192557     -3.112852     2.620513
C     -1.197987     -3.820441     2.721890
C     -0.331419     -3.789412     3.735154
H     -1.237131     -4.687044     2.065539
H      0.335954     -4.629070     3.909121
C     -0.242688     -2.634692     4.643154
C     -0.952712     -1.527193     4.425801
H      0.431145     -2.699948     5.492632
H     -0.856176     -0.675463     5.095135
C     -1.882500     -1.407261     3.256806
C     -1.386119     -0.743133     1.928569
H     -2.812671     -0.927257     3.576056
H     -1.826195      0.239591     1.731121
C     -1.202596     -2.423236    -0.026738
H     -0.334397     -2.990867     0.324073
H     -1.790040     -3.105140    -0.652827
C     -0.762084     -1.211838    -0.815017
C     -0.095143     -1.244537    -2.033927
H     -1.408053     -0.355924    -0.642643
H      0.293525     -2.190613    -2.404886
C      0.298664     -0.073205    -2.675769
C     -0.005264      1.181716    -2.172090
H      0.991701     -0.155968    -3.505669
H     -0.893566      1.300789    -1.561369
C      0.486673      2.439848    -2.757472
C      1.632524      2.502379    -3.559699
C     -0.202375      3.627960    -2.498207
C      2.050505      3.706794    -4.103434
H      2.215226      1.606047    -3.743793
C      0.211302      4.833440    -3.047815
H     -1.083682      3.601173    -1.862778
C      1.339217      4.877140    -3.856874
H      2.941377      3.735320    -4.723294
H     -0.348313      5.740727    -2.842716
H      1.667940      5.817369    -4.287868
C      0.132748     -0.680384     1.781127
H      0.519401      0.073185     2.474953
H      0.551120     -1.633303     2.116236
C      0.727043     -0.402934     0.391561
C      0.998850      0.895017    -0.035712
H      1.476807     -1.126925     0.083838
H      0.504884      1.740983     0.431275
C      2.301646      1.170243    -0.652403
O      3.018778      0.367440    -1.208133
O      2.658937      2.473628    -0.526317
H      3.496103      2.572946    -1.002110
49
 -1042.02443690 -1041.65916600  3.90 3.48
C     -1.135090     -2.307720    -1.975965
C     -2.545871     -2.467436    -2.637528
H     -0.393289     -3.029456    -2.332721
H     -2.441693     -3.010874    -3.581146
C     -3.686884     -3.033744    -1.851015
C     -4.518755     -2.244144    -1.171074
H     -3.816926     -4.113145    -1.832211
H     -5.335457     -2.667244    -0.593238
C     -4.343133     -0.783057    -1.159070
C     -3.429246     -0.179564    -1.921046
H     -4.981409     -0.197279    -0.503081
H     -3.317675      0.901560    -1.884364
C     -2.568684     -0.935856    -2.891195
C     -1.031024     -0.915960    -2.651994
H     -2.853727     -0.640358    -3.907700
H     -0.556979     -1.044468    -3.631157
C     -1.131828     -2.290504    -0.449685
H     -2.070063     -1.883069    -0.064722
H     -1.086862     -3.325083    -0.087699
C      0.019488     -1.495240     0.121016
C      0.176583     -1.362527     1.498306
H      0.917317     -1.476509    -0.493506
H     -0.609654     -1.743724     2.146119
C      1.142567     -0.544589     2.074643
C      2.009742      0.209851     1.303653
H      1.081809     -0.361270     3.142040
H      2.249524     -0.140516     0.304866
C      2.964981      1.192661     1.839044
C      4.066040      1.567914     1.061397
C      2.816909      1.781664     3.101236
C      5.009988      2.466409     1.539564
H      4.189683      1.133922     0.072466
C      3.756279      2.681986     3.576724
H      1.945368      1.554891     3.705666
C      4.861213      3.023894     2.802967
H      5.864098      2.731281     0.924198
H      3.624576      3.126542     4.558348
H      5.596026      3.727350     3.180965
C     -0.332441      0.261010    -1.972382
H      0.739417      0.208180    -2.203815
H     -0.691187      1.185015    -2.444659
C     -0.479757      0.429322    -0.470022
C      0.330882      1.381271     0.144509
H     -1.472388      0.323833    -0.047600
H      1.113503      1.862400    -0.436822
C     -0.176406      2.079903     1.340570
O     -1.082395      1.685539     2.028993
O      0.433866      3.253810     1.657680
H      1.178970      3.423122     1.070446
49
 -1042.02519054 -1041.65893400  3.42 3.63
C     -2.353825      0.150068     2.739210
C     -1.234323     -0.122859     3.793803
H     -3.298832      0.261338     3.278889
H     -1.659012     -0.366627     4.774951
C     -0.174945     -1.145486     3.502232
C      1.112489     -0.823454     3.384159
H     -0.483432     -2.186609     3.435205
H      1.858020     -1.591807     3.203347
C      1.562830      0.577959     3.421828
C      0.694952      1.584860     3.516795
H      2.625440      0.775267     3.314350
H      1.049383      2.613090     3.494494
C     -0.778104      1.354048     3.671711
C     -1.753305      1.558859     2.459065
H     -1.128918      1.946634     4.522733
H     -2.469464      2.363874     2.650130
C     -2.606646     -0.849588     1.599343
H     -2.506596     -1.859903     2.011040
H     -3.656790     -0.752260     1.300347
C     -1.784881     -0.748979     0.330531
C     -1.041896     -1.828679    -0.133697
H     -2.215546     -0.085618    -0.412701
H     -0.884704     -2.673842     0.533113
C     -0.313056     -1.792840    -1.317563
C     -0.315743     -0.680683    -2.145483
H      0.391012     -2.596554    -1.503058
H     -1.197371     -0.047397    -2.152644
C      0.513656     -0.557621    -3.357074
C      1.682587     -1.302806    -3.550321
C      0.133635      0.342008    -4.356445
C      2.422464     -1.171755    -4.715279
H      2.026813     -1.981893    -2.777233
C      0.870075      0.469939    -5.526619
H     -0.761238      0.942492    -4.215490
C      2.017339     -0.290079    -5.712283
H      3.325718     -1.759568    -4.846561
H      0.546751      1.165517    -6.294758
H      2.597109     -0.192732    -6.624612
C     -1.138087      1.808465     1.083595
H     -1.940566      2.020322     0.365880
H     -0.536534      2.723867     1.139984
C     -0.254551      0.694225     0.563704
C      0.447690      0.863384    -0.625807
H      0.255479      0.099826     1.304179
H      0.227821      1.707259    -1.271863
C      1.820157      0.345709    -0.682240
O      2.270283     -0.562863    -0.019468
O      2.585592      1.018639    -1.577489
H      3.451068      0.584849    -1.575926
49
 -1042.02309110 -1041.65668500  4.74 5.04
C      2.523810     -1.934817    -0.448491
C      3.790591     -2.131624     0.452177
H      2.462106     -2.637210    -1.285740
H      4.182619     -3.142381     0.306207
C      4.912464     -1.141722     0.400811
C      4.955052     -0.099415     1.231296
H      5.692159     -1.282009    -0.343983
H      5.767084      0.619898     1.176211
C      3.895250      0.124488     2.227486
C      2.920240     -0.764120     2.427374
H      3.922726      1.045099     2.804230
H      2.148241     -0.568580     3.167929
C      2.874694     -2.079497     1.704648
C      1.657264     -2.343181     0.772467
H      3.043997     -2.880043     2.434176
H      1.514447     -3.428799     0.740312
C      2.311132     -0.512721    -0.962381
H      2.717692      0.216665    -0.256337
H      2.890361     -0.384249    -1.885587
C      0.859410     -0.193446    -1.215922
C      0.460221      1.052738    -1.684681
H      0.228756     -1.046872    -1.453867
H      1.219484      1.818531    -1.841030
C     -0.879579      1.432154    -1.765287
C     -1.906421      0.592204    -1.354217
H     -1.110005      2.465877    -2.005482
H     -1.754097     -0.478306    -1.445234
C     -3.320771      0.997332    -1.301998
C     -4.317217      0.033420    -1.478272
C     -3.712156      2.319166    -1.065630
C     -5.661028      0.381562    -1.463733
H     -4.031898     -1.002172    -1.644458
C     -5.053522      2.667344    -1.045705
H     -2.964809      3.079749    -0.865007
C     -6.034024      1.702767    -1.252321
H     -6.418287     -0.380556    -1.618741
H     -5.338018      3.698296    -0.860026
H     -7.083370      1.979553    -1.239281
C      0.283906     -1.730204     1.042788
H     -0.466937     -2.286806     0.467622
H      0.036538     -1.909617     2.097667
C      0.071723     -0.252673     0.773980
C     -1.234636      0.225237     0.792026
H      0.856868      0.413009     1.119491
H     -2.044885     -0.484648     0.920132
C     -1.567696      1.573357     1.317171
O     -2.545387      1.787607     1.980558
O     -0.698037      2.579358     1.044916
H     -0.056059      2.290258     0.381739
49
 -1042.02224773 -1041.65667000  5.27 5.05
C     -0.099698     -2.994811     0.047900
C     -0.269371     -4.114428    -1.018859
H      0.542591     -3.361145     0.855593
H     -0.014979     -5.111669    -0.642629
C     -1.593034     -4.199932    -1.723300
C     -1.720904     -3.991672    -3.034386
H     -2.459804     -4.482710    -1.129949
H     -2.689427     -4.105137    -3.513715
C     -0.574892     -3.603685    -3.872190
C      0.617302     -3.341208    -3.335671
H     -0.727336     -3.521035    -4.944504
H      1.446421     -3.033926    -3.968836
C      0.852414     -3.438823    -1.858953
C      0.729601     -2.161517    -0.961658
H      1.816951     -3.920869    -1.672369
H      1.686411     -1.794053    -0.577364
C     -1.288034     -2.259703     0.653195
H     -2.091528     -2.141458    -0.081403
H     -1.711806     -2.827259     1.490254
C     -0.786345     -0.912127     1.113538
C     -1.518604      0.021940     1.833723
H      0.287899     -0.908790     1.273587
H     -2.586585     -0.129246     1.977702
C     -0.975541      1.258237     2.174219
C      0.332007      1.601344     1.864216
H     -1.646065      2.018682     2.560212
H      1.069231      0.809843     1.784232
C      0.916030      2.930049     2.107806
C      0.139380      4.082697     2.270397
C      2.306120      3.060239     2.171073
C      0.733320      5.309622     2.518912
H     -0.941126      4.025242     2.193017
C      2.903434      4.286976     2.424500
H      2.926884      2.179843     2.027607
C      2.117554      5.418157     2.603657
H      0.112057      6.190798     2.645308
H      3.985025      4.359171     2.481894
H      2.579105      6.380146     2.802133
C     -0.058423     -1.017689    -1.596168
H      0.543775     -0.583934    -2.401065
H     -0.943853     -1.437107    -2.081462
C     -0.547726      0.129383    -0.698823
C      0.240552      1.252222    -0.461933
H     -1.609088      0.334281    -0.802361
H      1.313990      1.192954    -0.612739
C     -0.280856      2.610628    -0.669711
O      0.394443      3.554664    -1.006579
O     -1.624971      2.734625    -0.492080
H     -1.832502      3.652190    -0.715971
49
 -1042.02235539 -1041.65646300  5.20 5.18
C     -2.430393     -0.196851     2.536150
C     -1.495387     -0.691670     3.688742
H     -3.427665     -0.057963     2.962239
H     -2.073643     -1.010350     4.564080
C     -0.480236     -1.763222     3.414479
C      0.831644     -1.540732     3.486484
H     -0.848376     -2.764432     3.201911
H      1.535032     -2.352201     3.322837
C      1.373512     -0.197319     3.748275
C      0.573205      0.860439     3.874806
H      2.452098     -0.080622     3.803878
H      0.999169      1.849083     4.031228
C     -0.920342      0.741941     3.821712
C     -1.694812      1.178843     2.530460
H     -1.337062      1.256741     4.693239
H     -2.375453      2.010600     2.735866
C     -2.594562     -1.044835     1.259497
H     -2.410571     -2.093921     1.512153
H     -3.647258     -0.994492     0.955370
C     -1.779710     -0.684803     0.038002
C     -1.194046     -1.672309    -0.745870
H     -2.122305      0.212819    -0.468221
H     -1.169376     -2.691026    -0.364748
C     -0.444876     -1.388470    -1.882563
C     -0.242202     -0.085734    -2.314988
H      0.119695     -2.197510    -2.334540
H     -1.008024      0.648183    -2.084531
C      0.608284      0.292996    -3.456122
C      0.399990      1.528774    -4.074438
C      1.625997     -0.527770    -3.953471
C      1.152568      1.919780    -5.173724
H     -0.373935      2.188720    -3.691247
C      2.381026     -0.138838    -5.048364
H      1.844114     -1.475246    -3.472317
C      2.144957      1.083724    -5.668266
H      0.962474      2.879103    -5.644743
H      3.163955     -0.792582    -5.419770
H      2.736243      1.383652    -6.527545
C     -0.860511      1.563122     1.309663
H     -1.509178      2.037225     0.562944
H     -0.147588      2.338262     1.615887
C     -0.085502      0.436832     0.658469
C      0.730691      0.734728    -0.428500
H      0.240662     -0.365438     1.304495
H      0.717173      1.736738    -0.844408
C      2.022168      0.057051    -0.613450
O      2.967004      0.524111    -1.204102
O      2.094860     -1.171661    -0.029870
H      2.996488     -1.483474    -0.187070
49
 -1042.01869482 -1041.65283300  7.50 7.46
C     -3.032103     -0.125645     1.907370
C     -2.363515      0.358401     3.235010
H     -4.097883     -0.269598     2.105732
H     -3.038364      0.232919     4.089968
C     -1.027705     -0.196336     3.636669
C      0.064409      0.561924     3.719094
H     -0.979760     -1.248449     3.909241
H      1.009682      0.133671     4.038051
C      0.050527      1.978756     3.319152
C     -1.042385      2.547432     2.811515
H      0.976099      2.540972     3.401628
H     -1.013936      3.584008     2.482688
C     -2.339213      1.806521     2.681073
C     -2.813426      1.283338     1.279702
H     -3.129580      2.416257     3.130324
H     -3.752356      1.752959     0.971372
C     -2.529517     -1.402365     1.210621
H     -2.229240     -2.115405     1.985577
H     -3.383822     -1.861860     0.699874
C     -1.422800     -1.297747     0.180378
C     -0.297243     -2.113148     0.257877
H     -1.781048     -1.042323    -0.812309
H     -0.116788     -2.656460     1.182538
C      0.720676     -2.091355    -0.689999
C      0.661748     -1.265473    -1.799399
H      1.643837     -2.608738    -0.452733
H     -0.315918     -0.983499    -2.176991
C      1.745906     -1.095033    -2.780928
C      1.455991     -0.501579    -4.014216
C      3.069192     -1.477325    -2.528774
C      2.440357     -0.328089    -4.978243
H      0.437801     -0.182517    -4.222003
C      4.052157     -1.302931    -3.489613
H      3.339138     -1.893717    -1.564643
C      3.743255     -0.733645    -4.720906
H      2.188504      0.124075    -5.932414
H      5.071565     -1.608549    -3.275484
H      4.516419     -0.600873    -5.470784
C     -1.833252      1.399719     0.114246
H     -2.342249      1.110581    -0.813673
H     -1.567649      2.456869    -0.005632
C     -0.557279      0.601353     0.282277
C      0.470959      0.740991    -0.645276
H     -0.223766      0.433164     1.293989
H      0.281639      1.286357    -1.567502
C      1.859534      0.696379    -0.144190
O      2.187445      0.239510     0.921167
O      2.808270      1.241151    -0.951788
H      2.435684      1.475347    -1.809631
49
 -1042.01774378 -1041.65102600  8.10 8.59
C      0.202755      0.464656     3.504850
C      0.650622      1.952769     3.350809
H      0.149195      0.245128     4.575011
H      1.029376      2.357061     4.297206
C      1.640645      2.330571     2.286459
C      1.331468      3.160420     1.289575
H      2.656488      1.953874     2.384915
H      2.087929      3.461234     0.569848
C     -0.041272      3.659935     1.099820
C     -1.040997      3.259549     1.885511
H     -0.229952      4.332325     0.268060
H     -2.053822      3.608903     1.697620
C     -0.819108      2.351349     3.058043
C     -1.222540      0.835211     2.992711
H     -1.284346      2.811036     3.935884
H     -2.001993      0.595238     3.722014
C      1.027783     -0.661143     2.858827
H      2.087515     -0.400937     2.956593
H      0.885513     -1.566354     3.461014
C      0.742073     -1.047622     1.425031
C      1.748726     -1.089847     0.466369
H     -0.064040     -1.767170     1.323719
H      2.723649     -0.673672     0.715046
C      1.512722     -1.475400    -0.851918
C      0.252177     -1.867538    -1.288368
H      2.306354     -1.337434    -1.580000
H     -0.406004     -2.343370    -0.568497
C     -0.059461     -2.201421    -2.688485
C     -1.084497     -3.110739    -2.962881
C      0.627467     -1.634129    -3.766505
C     -1.388141     -3.476962    -4.267172
H     -1.642189     -3.547100    -2.138349
C      0.322199     -1.994524    -5.069619
H      1.388982     -0.881809    -3.590298
C     -0.681021     -2.922795    -5.326361
H     -2.178177     -4.196944    -4.456273
H      0.866267     -1.542807    -5.893134
H     -0.915069     -3.205144    -6.347873
C     -1.669783      0.277043     1.643047
H     -2.003777     -0.759830     1.771698
H     -2.553039      0.837957     1.314124
C     -0.622835      0.358017     0.554232
C     -0.928143     -0.012750    -0.751423
H      0.078636      1.168211     0.678251
H     -1.879010     -0.497170    -0.949303
C     -0.450204      0.795939    -1.900003
O     -1.114826      0.985528    -2.882309
O      0.779801      1.365088    -1.799035
H      1.235908      1.047566    -1.008483
