49
 -1042.03211693 -1041.66599100  0.00 0.00
C      0.418722     -2.943520    -0.093463
C      0.425391     -4.063646     0.985427
H      0.222638     -3.279453    -1.115818
H      1.423152     -4.332084     1.352894
C     -0.324751     -5.305916     0.601335
C     -1.412985     -5.716482     1.255607
H      0.059716     -5.884986    -0.235487
H     -1.910878     -6.636261     0.960922
C     -1.964444     -4.964432     2.393303
C     -1.488570     -3.761878     2.717843
H     -2.775170     -5.412044     2.960857
H     -1.905789     -3.211178     3.557594
C     -0.401205     -3.127007     1.908021
C     -0.802927     -2.326511     0.636406
H      0.253586     -2.524961     2.545452
H     -1.707210     -2.796868     0.236613
C      1.682279     -2.085401    -0.036116
H      2.068066     -2.081012     0.990598
H      2.469188     -2.548481    -0.645633
C      1.491548     -0.649512    -0.467872
C      0.823420     -0.288794    -1.636024
H      2.280881      0.012748    -0.126858
H      0.285321     -1.051507    -2.194277
C      0.604010      1.042258    -1.975914
C      1.102282      2.083377    -1.209039
H     -0.107707      1.254962    -2.766399
H      2.011379      1.917084    -0.640648
C      0.815671      3.507355    -1.451389
C      1.678711      4.472561    -0.924982
C     -0.297498      3.943572    -2.179588
C      1.462465      5.825907    -1.142011
H      2.538509      4.152108    -0.342583
C     -0.516541      5.295662    -2.393446
H     -1.010178      3.223494    -2.566468
C      0.364037      6.243399    -1.882520
H      2.153304      6.555719    -0.731688
H     -1.385032      5.615125    -2.961156
H      0.189831      7.300543    -2.055738
C     -1.044997     -0.822082     0.681122
H     -1.521355     -0.501964    -0.246541
H     -1.778819     -0.620698     1.472555
C      0.156579      0.061122     0.933031
C      0.084461      1.455836     0.833450
H      0.830992     -0.283601     1.716108
H      0.787642      2.046777     1.410738
C     -1.142894      2.170603     0.459727
O     -2.053746      1.772417    -0.233884
O     -1.165236      3.420746     0.992630
H     -1.965850      3.846906     0.653311
49
 -1042.02965860 -1041.66387300  1.54 1.33
C     -0.035924     -3.111378     0.239377
C      0.714345     -2.970877     1.596191
H     -0.242807     -4.172842     0.072821
H      1.414767     -2.132267     1.573245
C      1.412468     -4.186659     2.123858
C      0.810487     -5.032915     2.959025
H      2.427842     -4.379418     1.784825
H      1.328457     -5.918713     3.315432
C     -0.566377     -4.796681     3.419700
C     -1.231082     -3.685941     3.100681
H     -1.036776     -5.553819     4.040906
H     -2.250081     -3.541531     3.454338
C     -0.635637     -2.590746     2.265768
C     -1.286071     -2.429423     0.858056
H     -0.615360     -1.664134     2.850406
H     -2.202095     -3.015677     0.739626
C      0.568029     -2.534805    -1.040432
H      1.547734     -3.002912    -1.201699
H     -0.067084     -2.860073    -1.871904
C      0.733172     -1.029434    -1.132953
C      0.187081     -0.367941    -2.230682
H      1.645541     -0.633218    -0.698776
H     -0.468396     -0.935541    -2.888139
C      0.241569      1.004959    -2.424039
C      0.858593      1.843785    -1.508626
H     -0.375539      1.427346    -3.209343
H      1.689013      1.444992    -0.933318
C      0.849125      3.315132    -1.591521
C     -0.105567      4.024435    -2.329958
C      1.820189      4.043309    -0.899311
C     -0.063745      5.408521    -2.397389
H     -0.895424      3.492396    -2.849653
C      1.863749      5.429577    -0.966900
H      2.559731      3.509978    -0.307646
C      0.923243      6.118351    -1.721463
H     -0.810674      5.940418    -2.978570
H      2.635194      5.972117    -0.429564
H      0.953840      7.201739    -1.778869
C     -1.569234     -0.995832     0.412236
H     -2.003497     -0.987124    -0.590000
H     -2.335993     -0.571838     1.071863
C     -0.348124     -0.105290     0.458635
C     -0.393190      1.282131     0.299882
H      0.403165     -0.409633     1.180821
H      0.266150      1.890947     0.907912
C     -1.614717      1.956733    -0.160969
O     -2.443855      1.513015    -0.923542
O     -1.728453      3.204051     0.361963
H     -2.527779      3.592728    -0.022299
49
 -1042.02795392 -1041.66209000  2.61 2.45
C     -0.127436      2.298739     1.556566
C      0.892720      3.271784     2.214344
H     -0.900678      2.887960     1.055157
H      1.373440      2.788180     3.070709
C      0.427494      4.645882     2.583239
C      0.481064      5.648284     1.705423
H      0.010254      4.804254     3.574859
H      0.116986      6.636490     1.971938
C      1.025249      5.445859     0.354014
C      1.605527      4.299264    -0.004925
H      0.949795      6.264481    -0.356475
H      1.996862      4.180175    -1.013249
C      1.766494      3.141511     0.936117
C      0.958655      1.873362     0.537932
H      2.833704      2.960126     1.112678
H      0.640374      1.825315    -0.503682
C     -0.750278      1.166598     2.367579
H     -0.059004      0.849142     3.157884
H     -1.661532      1.504213     2.877244
C     -1.056244     -0.018367     1.474809
C     -1.599753      0.169064     0.205030
H     -1.292058     -0.943692     1.991525
H     -1.726413      1.181426    -0.165767
C     -1.758985     -0.857943    -0.715104
C     -1.378357     -2.159867    -0.432836
H     -2.006094     -0.584649    -1.735650
H     -1.415250     -2.491522     0.600428
C     -1.379017     -3.259405    -1.412095
C     -1.378725     -4.580106    -0.955000
C     -1.367965     -3.040116    -2.794902
C     -1.401101     -5.648059    -1.841808
H     -1.373469     -4.770010     0.115288
C     -1.389170     -4.105557    -3.681269
H     -1.331004     -2.028106    -3.184318
C     -1.411289     -5.414547    -3.210761
H     -1.412252     -6.664757    -1.461740
H     -1.383335     -3.914773    -4.750024
H     -1.430303     -6.245831    -3.908220
C      1.678953      0.581801     0.924798
H      2.487123      0.419594     0.206476
H      2.160070      0.734178     1.899156
C      0.875958     -0.717080     1.060741
C      0.839765     -1.708815     0.078600
H      0.924979     -1.131646     2.065907
H      0.899722     -2.748410     0.377425
C      1.241818     -1.421687    -1.302621
O      1.164250     -0.350441    -1.863963
O      1.720036     -2.520820    -1.936502
H      1.918419     -2.251477    -2.844952
49
 -1042.02739766 -1041.66107400  2.96 3.09
C      0.727512     -1.261114     2.568952
C      1.962078     -1.134595     3.506687
H     -0.190241     -1.613736     3.048508
H      2.716940     -1.918084     3.369055
C      1.628694     -1.001269     4.964320
C      1.920441      0.094160     5.668563
H      1.144290     -1.847366     5.446895
H      1.684836      0.138838     6.728395
C      2.576776      1.259149     5.055537
C      2.766280      1.326785     3.737344
H      2.899585      2.067942     5.704689
H      3.248618      2.193867     3.292345
C      2.281639      0.231279     2.839405
C      0.803341      0.274207     2.359582
H      2.955991      0.104030     1.987028
H      0.224640      0.750573     3.157828
C      1.039304     -2.086120     1.319758
H      2.107022     -1.994983     1.085999
H      0.873609     -3.150207     1.533088
C      0.257768     -1.692687     0.088201
C     -1.120644     -1.499354     0.087620
H      0.709908     -2.031453    -0.838687
H     -1.655111     -1.499166     1.035035
C     -1.799586     -1.054057    -1.042590
C     -1.152479     -0.843914    -2.250075
H     -2.823779     -0.718464    -0.918127
H     -0.273986     -1.441513    -2.469662
C     -1.781678     -0.269719    -3.451102
C     -1.159989     -0.443837    -4.690298
C     -2.974836      0.460873    -3.411147
C     -1.721066      0.059585    -5.855043
H     -0.222032     -0.990568    -4.738529
C     -3.537238      0.965314    -4.573328
H     -3.468262      0.643208    -2.462596
C     -2.917500      0.763453    -5.801752
H     -1.222730     -0.098622    -6.806272
H     -4.466218      1.524572    -4.521025
H     -3.362178      1.157832    -6.709813
C      0.403145      0.932152     1.042983
H     -0.683823      1.012307     1.007935
H      0.783445      1.962180     1.050329
C      0.885828      0.263374    -0.224788
C      0.487788      0.668230    -1.503701
H      1.911606     -0.101427    -0.188987
H      1.157187      0.436061    -2.325871
C     -0.344643      1.836297    -1.828991
O     -0.169719      2.512235    -2.816321
O     -1.343175      2.129124    -0.952778
H     -1.767360      2.924630    -1.304598
49
 -1042.02563914 -1041.65960700  4.06 4.01
C     -0.248771     -3.042221     0.478244
C      0.623081     -2.875799     1.757219
H     -0.555621     -4.090359     0.410077
H      1.387231     -2.107312     1.615760
C      1.258971     -4.110142     2.319483
C      0.662568     -4.837903     3.263297
H      2.221042     -4.417291     1.915582
H      1.132935     -5.740020     3.643968
C     -0.643743     -4.446172     3.814287
C     -1.238205     -3.305305     3.464531
H     -1.119802     -5.111849     4.528902
H     -2.206402     -3.044367     3.887312
C     -0.628255     -2.330480     2.500737
C     -1.382827     -2.213406     1.141468
H     -0.480691     -1.369656     3.006641
H     -2.348501     -2.727482     1.143408
C      0.290131     -2.613153    -0.886707
H      1.210649     -3.177042    -1.086095
H     -0.437430     -2.939161    -1.638439
C      0.570626     -1.139419    -1.109031
C     -0.003132     -0.508159    -2.209690
H      1.541425     -0.793004    -0.769139
H     -0.741363     -1.064881    -2.784346
C      0.139954      0.841642    -2.499390
C      0.887509      1.685957    -1.691692
H     -0.492712      1.260611    -3.274475
H      1.731427      1.255813    -1.160107
C      0.986517      3.144434    -1.874053
C      0.023276      3.887043    -2.565973
C      2.072631      3.828528    -1.322114
C      0.163880      5.256435    -2.727005
H     -0.852650      3.394456    -2.974565
C      2.216475      5.199994    -1.483556
H      2.822020      3.271236    -0.766116
C      1.263240      5.919527    -2.192265
H     -0.592732      5.813667    -3.270465
H      3.075627      5.706857    -1.055580
H      1.371262      6.991558    -2.322750
C     -1.590454     -0.796794     0.606748
H     -2.095580     -0.837377    -0.361146
H     -2.269511     -0.264061     1.283909
C     -0.301598     -0.013233     0.494711
C     -0.221083      1.359763     0.249793
H      0.481135     -0.348859     1.167511
H      0.561937      1.912314     0.757073
C     -1.381065      2.217084    -0.043814
O     -1.503861      3.343381     0.375527
O     -2.328883      1.656410    -0.840382
H     -3.030680      2.318199    -0.917293
49
 -1042.02334231 -1041.65717000  5.51 5.54
C     -0.736148     -1.054207    -2.427163
C     -0.106149     -2.030369    -3.461504
H     -1.776180     -1.347863    -2.257843
H      0.716411     -1.537112    -3.989236
C     -1.012996     -2.718960    -4.433249
C     -1.594271     -3.879302    -4.126534
H     -1.217191     -2.235229    -5.385452
H     -2.272330     -4.359929    -4.826072
C     -1.341724     -4.537260    -2.835606
C     -0.427930     -4.076953    -1.979219
H     -1.919193     -5.424726    -2.591512
H     -0.265247     -4.585651    -1.031170
C      0.422339     -2.874581    -2.268741
C      0.166497     -1.664039    -1.325984
H      1.474024     -3.178564    -2.337515
H     -0.335674     -1.898138    -0.386659
C     -0.624710      0.455346    -2.617934
H      0.294553      0.695173    -3.166404
H     -1.452631      0.833537    -3.230980
C     -0.596974      1.159350    -1.278007
C     -1.437781      0.763434    -0.241300
H     -0.278795      2.197203    -1.301459
H     -2.080037     -0.100035    -0.389061
C     -1.328287      1.250531     1.054183
C     -0.361134      2.178070     1.410382
H     -1.897494      0.749859     1.830787
H     -0.034300      2.884624     0.653276
C     -0.097189      2.620766     2.789911
C     -0.450590      1.857290     3.908175
C      0.549221      3.841099     3.004357
C     -0.196185      2.317246     5.190458
H     -0.916832      0.886363     3.777839
C      0.803333      4.304701     4.287952
H      0.845826      4.441159     2.147948
C      0.426271      3.545297     5.387999
H     -0.480861      1.710930     6.044709
H      1.295585      5.261886     4.428558
H      0.621279      3.903353     6.393798
C      1.437643     -0.855622    -1.059284
H      2.055998     -1.414228    -0.350792
H      2.014590     -0.811679    -1.991343
C      1.320534      0.594178    -0.578996
C      1.496521      1.010285     0.741848
H      1.746795      1.298230    -1.290797
H      2.050695      1.925071     0.917211
C      1.568989      0.097026     1.892843
O      2.303963      0.258509     2.837605
O      0.724612     -0.967528     1.832141
H      0.903155     -1.488541     2.627840
