49
 -1042.03041225 -1041.66396900  0.00 0.00
C      0.346208     -3.016360     0.726304
C      1.486145     -4.029036     1.076849
H     -0.624737     -3.485806     0.538233
H      1.198079     -5.030225     0.742129
C      2.015274     -4.098737     2.476273
C      3.088891     -3.403109     2.851230
H      1.489419     -4.723313     3.194628
H      3.453230     -3.458265     3.873105
C      3.798508     -2.526059     1.905856
C      3.467442     -2.471870     0.615320
H      4.608538     -1.911110     2.288420
H      4.007405     -1.809202    -0.057250
C      2.394795     -3.338641     0.021158
C      1.134841     -2.622137    -0.549490
H      2.862955     -4.024096    -0.694135
H      0.762899     -3.191279    -1.408121
C      0.185130     -1.859690     1.712075
H      1.176029     -1.521906     2.026955
H     -0.312790     -2.233483     2.615492
C     -0.583768     -0.666784     1.180921
C     -0.136901      0.612394     1.506009
H     -1.648349     -0.820598     1.029455
H      0.816591      0.697916     2.023538
C     -0.688954      1.784177     1.009831
C     -1.742478      1.764610     0.107917
H     -0.147121      2.707744     1.182324
H     -2.441664      0.935396     0.163258
C     -2.294242      2.960001    -0.555277
C     -3.578763      2.903858    -1.101859
C     -1.579300      4.157544    -0.673333
C     -4.148812      4.011792    -1.715114
H     -4.142846      1.977279    -1.033265
C     -2.146928      5.264523    -1.285400
H     -0.566233      4.225513    -0.291160
C     -3.435616      5.199852    -1.804893
H     -5.152967      3.946290    -2.122031
H     -1.577805      6.185767    -1.362884
H     -3.877252      6.069288    -2.281363
C      1.139335     -1.140667    -0.899719
H      1.601233     -0.981032    -1.880061
H      1.727781     -0.555748    -0.190954
C     -0.299807     -0.663567    -0.926368
C     -0.732418      0.530240    -1.505811
H     -1.015114     -1.475207    -1.054209
H     -1.673385      0.535394    -2.043249
C      0.234219      1.558421    -1.915575
O      1.310259      1.778711    -1.406234
O     -0.216443      2.290709    -2.965491
H      0.459494      2.960511    -3.144033
49
 -1042.02646457 -1041.66011100  2.48 2.42
C     -1.136046     -0.858927     2.744723
C     -0.947214     -0.524409     4.261425
H     -1.749874     -1.745792     2.557253
H     -1.173370     -1.412039     4.860092
C     -1.633622      0.669079     4.851148
C     -1.022283      1.850163     4.943837
H     -2.660310      0.555794     5.191310
H     -1.538888      2.707658     5.365527
C      0.355806      2.036118     4.461682
C      1.086214      1.014495     4.013335
H      0.771402      3.039983     4.476056
H      2.100300      1.185143     3.658855
C      0.583961     -0.400670     4.022048
C      0.393295     -1.096590     2.641797
H      1.201273     -0.981294     4.716691
H      0.613381     -2.164029     2.749164
C     -1.624238      0.304663     1.882273
H     -1.123755      1.221343     2.205774
H     -2.694389      0.457078     2.070733
C     -1.403018      0.133040     0.393568
C     -1.011255      1.238040    -0.358915
H     -2.005455     -0.632750    -0.086790
H     -0.775384      2.156413     0.176218
C     -0.675461      1.187753    -1.703976
C     -0.687340     -0.006017    -2.411900
H     -0.219582      2.068345    -2.144146
H     -1.400551     -0.764577    -2.102611
C     -0.233598     -0.158600    -3.805804
C      0.647001      0.739323    -4.418622
C     -0.682734     -1.251269    -4.551712
C      1.033714      0.565579    -5.738207
H      1.046889      1.577257    -3.857507
C     -0.297726     -1.427129    -5.874173
H     -1.354466     -1.968709    -4.087620
C      0.559622     -0.514640    -6.474754
H      1.715037      1.275900    -6.195957
H     -0.669707     -2.277950    -6.436246
H      0.862684     -0.646040    -7.508609
C      1.065117     -0.575228     1.378806
H      2.110243     -0.902485     1.341896
H      1.081509      0.515862     1.357086
C      0.308121     -1.128965     0.186527
C      0.767343     -1.162758    -1.131363
H     -0.285646     -2.006661     0.439222
H      0.530014     -2.037327    -1.726037
C      2.007771     -0.512814    -1.584438
O      2.733094     -0.963308    -2.439214
O      2.294356      0.664683    -0.967836
H      3.137769      0.957267    -1.340609
49
 -1042.02666195 -1041.65975400  2.35 2.64
C      2.251193      0.900031    -2.515614
C      2.732569      2.291715    -2.004347
H      2.671826      0.783708    -3.519905
H      3.645461      2.635453    -2.504715
C      2.913287      2.482214    -0.527868
C      2.183999      3.349812     0.175779
H      3.706374      1.917822    -0.042317
H      2.377153      3.493643     1.235579
C      1.103909      4.134507    -0.442220
C      0.744842      3.934568    -1.710271
H      0.592643      4.872962     0.168494
H     -0.070345      4.507753    -2.145736
C      1.421291      2.905789    -2.561679
C      0.813581      1.467115    -2.660951
H      1.579289      3.306554    -3.567257
H      0.350304      1.247835    -3.628449
C      2.542746     -0.408209    -1.758197
H      3.519374     -0.309276    -1.268051
H      2.669666     -1.197195    -2.506537
C      1.539584     -0.926213    -0.738139
C      1.467202     -0.446234     0.566588
H      1.292120     -1.972287    -0.882299
H      2.020349      0.450715     0.826391
C      0.544106     -0.929227     1.487997
C     -0.327459     -1.962794     1.181812
H      0.402888     -0.365574     2.403978
H     -0.012904     -2.701223     0.451150
C     -1.395612     -2.439745     2.077521
C     -1.927496     -1.652474     3.105649
C     -1.916310     -3.723544     1.893918
C     -2.922110     -2.148580     3.934182
H     -1.574547     -0.637080     3.250278
C     -2.909493     -4.222608     2.725358
H     -1.526653     -4.342410     1.089939
C     -3.414124     -3.437077     3.753493
H     -3.321435     -1.523474     4.726933
H     -3.289576     -5.227333     2.569385
H     -4.190518     -3.822195     4.406836
C     -0.152314      1.102689    -1.542030
H     -1.114376      1.590014    -1.731141
H      0.182064      1.493867    -0.581193
C     -0.355710     -0.391373    -1.447776
C     -1.349582     -0.975351    -0.659208
H     -0.147366     -0.938381    -2.366793
H     -1.757866     -1.932628    -0.963815
C     -2.233367     -0.167566     0.192488
O     -1.975057      0.893004     0.717368
O     -3.444057     -0.760503     0.359769
H     -3.939546     -0.201220     0.975619
49
 -1042.02389858 -1041.65830800  4.09 3.55
C      1.594922     -2.442335    -1.062530
C      1.400906     -3.958193    -1.395653
H      2.638562     -2.112039    -1.079490
H      2.349037     -4.485742    -1.253953
C      0.792202     -4.359112    -2.704174
C     -0.514147     -4.597021    -2.821846
H      1.443091     -4.436720    -3.571913
H     -0.939935     -4.877540    -3.781019
C     -1.420485     -4.468213    -1.669208
C     -0.963875     -4.213556    -0.442593
H     -2.486953     -4.583973    -1.842062
H     -1.659849     -4.118863     0.387906
C      0.501451     -4.098266    -0.135405
C      1.019959     -2.712074     0.351982
H      0.779240     -4.921719     0.531901
H      1.835430     -2.868341     1.065994
C      0.729780     -1.485412    -1.880235
H     -0.266988     -1.919157    -1.996364
H      1.148521     -1.404211    -2.890959
C      0.586601     -0.094887    -1.292996
C     -0.651201      0.542828    -1.389515
H      1.483409      0.517811    -1.321503
H     -1.494881     -0.042017    -1.749720
C     -0.935405      1.782299    -0.835259
C      0.014159      2.483095    -0.109467
H     -1.972799      2.097392    -0.807564
H      1.059854      2.328689    -0.358555
C     -0.239978      3.736099     0.622623
C     -1.524863      4.153691     0.990436
C      0.843780      4.542865     0.984929
C     -1.714656      5.351418     1.660975
H     -2.382800      3.527878     0.770642
C      0.653917      5.743699     1.655678
H      1.850089      4.226820     0.722123
C     -0.628851      6.156066     1.991278
H     -2.718935      5.659709     1.934528
H      1.509851      6.358562     1.915435
H     -0.783502      7.094396     2.514196
C      0.076930     -1.647990     0.895629
H     -0.170448     -1.851426     1.942630
H     -0.872957     -1.632611     0.360116
C      0.777183     -0.305920     0.786963
C      0.385469      0.849649     1.469700
H      1.861012     -0.399407     0.721245
H      1.168362      1.493622     1.859420
C     -0.945668      0.942435     2.100423
O     -1.913792      0.309874     1.763260
O     -1.060640      1.824482     3.130863
H     -0.240112      2.313363     3.261110
49
 -1042.02262455 -1041.65543200  4.89 5.36
C     -2.410801     -1.391644    -1.336316
C     -3.647310     -0.740973    -0.650387
H     -2.741298     -1.994042    -2.189231
H     -4.536486     -0.718144    -1.290012
C     -3.451419      0.621720    -0.051273
C     -3.555545      0.848892     1.258993
H     -3.244030      1.444763    -0.731625
H     -3.429086      1.853936     1.650926
C     -3.823192     -0.237579     2.214610
C     -3.857405     -1.511266     1.821871
H     -3.972702      0.023027     3.258590
H     -4.035106     -2.303370     2.545794
C     -3.631683     -1.894644     0.391967
C     -2.192418     -2.281672    -0.088247
H     -4.333777     -2.683829     0.107115
H     -2.060528     -3.348801    -0.293172
C     -1.190391     -0.572603    -1.731472
H     -1.002306      0.192601    -0.978517
H     -1.353514     -0.053803    -2.683864
C     -0.035547     -1.551254    -1.876100
C      1.250006     -1.321140    -2.373515
H     -0.404241     -2.545903    -2.132888
H      1.704671     -2.141060    -2.926280
C      2.098961     -0.289224    -2.007251
C      1.773936      0.658045    -1.042586
H      3.127076     -0.345253    -2.351599
H      0.746342      0.974334    -0.929703
C      2.760974      1.619122    -0.517840
C      4.126795      1.326114    -0.448656
C      2.326052      2.862026    -0.048740
C      5.029565      2.259976     0.037535
H      4.490701      0.354417    -0.767678
C      3.228916      3.798022     0.435649
H      1.265407      3.095748    -0.067674
C      4.585920      3.503184     0.475764
H      6.086118      2.014886     0.080779
H      2.871146      4.762375     0.782760
H      5.293501      4.234272     0.853383
C     -1.070034     -1.753736     0.800105
H     -1.042766     -2.349476     1.721679
H     -1.309457     -0.736373     1.104338
C      0.331869     -1.782670     0.211312
C      1.300182     -0.858810     0.632427
H      0.724921     -2.775220     0.011473
H      2.334838     -1.181913     0.642900
C      1.008653      0.248286     1.557712
O      0.010111      0.937417     1.592277
O      2.045783      0.476032     2.400297
H      1.808598      1.255209     2.924372
49
 -1042.02249894 -1041.65532900  4.97 5.42
C     -1.249007     -2.813344    -1.594948
C     -2.396895     -2.184690    -2.441327
H     -1.355931     -3.898399    -1.696672
H     -2.756860     -2.852200    -3.233001
C     -2.171823     -0.829240    -3.042596
C     -2.900479      0.234723    -2.700725
H     -1.414640     -0.744284    -3.818879
H     -2.738927      1.189683    -3.193794
C     -3.936526      0.161687    -1.658953
C     -4.117280     -0.947882    -0.942357
H     -4.543777      1.043664    -1.477020
H     -4.874146     -0.979227    -0.162035
C     -3.275847     -2.166268    -1.162935
C     -1.988529     -2.381361    -0.299830
H     -3.903030     -3.061202    -1.112839
H     -2.080235     -3.180903     0.442461
C      0.235660     -2.487700    -1.844608
H      0.367541     -2.305877    -2.918529
H      0.810124     -3.394191    -1.628207
C      0.896064     -1.353197    -1.077500
C      0.786661     -0.017488    -1.448658
H      1.822879     -1.648300    -0.597643
H      0.071367      0.256302    -2.218152
C      1.387673      1.008042    -0.725796
C      2.176640      0.759203     0.387262
H      1.091795      2.026118    -0.955839
H      2.720512     -0.179368     0.424684
C      2.751042      1.802116     1.255066
C      2.250305      3.107956     1.306183
C      3.833037      1.481261     2.079009
C      2.834433      4.060483     2.126542
H      1.391686      3.384433     0.703863
C      4.420620      2.433623     2.900103
H      4.224626      0.467554     2.066579
C      3.925298      3.731054     2.923656
H      2.433559      5.069119     2.147609
H      5.267348      2.161282     3.522307
H      4.381469      4.480379     3.562687
C     -1.455131     -1.123716     0.372820
H     -2.087377     -0.894463     1.237527
H     -1.533978     -0.261422    -0.289576
C     -0.024582     -1.300650     0.824864
C      0.647087     -0.404165     1.658136
H      0.278577     -2.337452     0.966664
H      1.435088     -0.799111     2.290544
C      0.041683      0.801111     2.248663
O      0.274413      1.178559     3.372992
O     -0.812581      1.485901     1.442835
H     -1.139608      2.221847     1.979364
49
 -1042.01962790 -1041.65351500  6.77 6.56
C     -0.138006     -2.609592    -2.302621
C     -1.674080     -2.757566    -2.522257
H      0.326953     -3.446204    -2.834405
H     -1.921097     -3.334568    -3.421096
C     -2.513735     -1.514976    -2.523179
C     -3.458154     -1.289647    -1.608191
H     -2.364130     -0.808475    -3.336681
H     -4.078634     -0.399517    -1.670349
C     -3.695247     -2.220419    -0.493823
C     -2.905914     -3.276508    -0.297334
H     -4.523678     -2.015403     0.177997
H     -3.081500     -3.942821     0.544017
C     -1.745317     -3.563324    -1.198230
C     -0.324909     -3.026368    -0.819604
H     -1.689451     -4.637698    -1.396467
H      0.370427     -3.804423    -0.488289
C      0.638637     -1.342340    -2.701320
H      0.169515     -0.919639    -3.598404
H      1.638640     -1.658045    -3.015764
C      0.831752     -0.225163    -1.684788
C     -0.142993      0.736812    -1.423799
H      1.862289      0.106943    -1.619763
H     -1.147359      0.580926    -1.804419
C      0.053590      1.767883    -0.511130
C      1.257834      1.941546     0.150003
H     -0.813925      2.338394    -0.197917
H      2.166241      1.600693    -0.336602
C      1.493529      2.936283     1.209303
C      0.455038      3.517172     1.947079
C      2.806959      3.315654     1.506600
C      0.724774      4.469018     2.917045
H     -0.569920      3.205880     1.779376
C      3.077146      4.270575     2.477130
H      3.626867      2.864442     0.953552
C      2.034407      4.856206     3.182985
H     -0.093499      4.910165     3.477670
H      4.103719      4.558322     2.681135
H      2.238820      5.604329     3.942196
C     -0.324214     -1.881130     0.182879
H     -0.502027     -2.283415     1.185214
H     -1.147635     -1.191069     0.001900
C      0.988461     -1.131418     0.170064
C      1.332437     -0.192337     1.148531
H      1.838001     -1.711075    -0.190869
H      2.389961     -0.053554     1.359190
C      0.384453      0.217046     2.202777
O     -0.816341      0.222415     2.106126
O      0.949941      0.625229     3.373914
H      1.911371      0.590762     3.320619
49
 -1042.01760023 -1041.65054600  8.04 8.42
C     -2.217206     -1.679928     1.301709
C     -1.976362     -1.503577     2.829192
H     -3.168895     -2.197613     1.141000
H     -2.888087     -1.614595     3.426566
C     -1.267405     -0.256160     3.271280
C     -0.071018     -0.284700     3.861324
H     -1.782153      0.691626     3.129695
H      0.389333      0.636929     4.206802
C      0.662955     -1.543767     4.065614
C      0.208839     -2.696706     3.572992
H      1.598865     -1.507933     4.615912
H      0.774851     -3.614434     3.716025
C     -1.070390     -2.767097     2.797208
C     -1.035510     -2.678489     1.234269
H     -1.633676     -3.655454     3.098118
H     -1.253084     -3.624042     0.727382
C     -2.108704     -0.510380     0.333797
H     -1.285312      0.140287     0.628353
H     -3.019697      0.100724     0.356032
C     -1.930803     -1.096027    -1.056172
C     -1.897590     -0.441522    -2.288091
H     -2.398322     -2.080153    -1.121329
H     -2.336979     -0.977415    -3.127440
C     -1.133730      0.669432    -2.611605
C     -0.228369      1.257305    -1.733469
H     -1.097116      0.958752    -3.657610
H     -0.450060      1.275728    -0.676121
C      0.711773      2.306267    -2.171002
C      1.089459      3.312433    -1.277872
C      1.265511      2.319926    -3.454363
C      1.955818      4.325026    -1.665521
H      0.686358      3.305267    -0.268799
C      2.134873      3.328649    -3.842749
H      1.023585      1.528463    -4.156938
C      2.478874      4.340183    -2.952402
H      2.222445      5.105913    -0.960133
H      2.552256      3.322551    -4.844731
H      3.156432      5.130830    -3.258340
C      0.227180     -2.038163     0.665085
H      1.057211     -2.748969     0.771266
H      0.489883     -1.177709     1.276063
C      0.162552     -1.636253    -0.798402
C      0.976742     -0.622762    -1.322928
H     -0.025916     -2.454740    -1.486730
H      1.256240     -0.712453    -2.366754
C      2.013951      0.110168    -0.570961
O      3.127107      0.301954    -0.995970
O      1.635628      0.603138     0.642835
H      2.417661      1.049486     0.997912
