49
 -1042.03030459 -1041.66325100  0.00 0.00
C      0.537839      0.927656     2.968290
C     -0.392250      1.363288     4.152793
H      1.566944      0.713094     3.271113
H      0.043265      1.018340     5.095175
C     -0.829400      2.788589     4.291640
C     -1.970740      3.218613     3.752693
H     -0.187131      3.476610     4.836323
H     -2.272842      4.257278     3.851821
C     -2.841073      2.312022     2.986670
C     -2.593147      1.003475     2.906208
H     -3.700468      2.738689     2.476510
H     -3.247993      0.358942     2.324427
C     -1.459624      0.356013     3.647500
C     -0.349760     -0.337253     2.806832
H     -1.884260     -0.292016     4.423199
H      0.072678     -1.127894     3.436353
C      0.535749      1.873130     1.769041
H     -0.434675      2.368412     1.689568
H      1.264381      2.676739     1.937549
C      0.824313      1.195747     0.449255
C      1.856537      0.277621     0.265036
H      0.537286      1.791397    -0.411343
H      2.402059     -0.089549     1.131441
C      2.044844     -0.379562    -0.946126
C      1.260488     -0.104662    -2.055923
H      2.711319     -1.235307    -0.963004
H      0.838156      0.889755    -2.155208
C      1.336063     -0.838159    -3.330783
C      0.848351     -0.232671    -4.492282
C      1.866262     -2.129766    -3.432500
C      0.914784     -0.874545    -5.720696
H      0.417577      0.763074    -4.428733
C      1.929405     -2.773515    -4.658680
H      2.214705     -2.645601    -2.544493
C      1.460941     -2.148551    -5.809604
H      0.539044     -0.378498    -6.610091
H      2.344604     -3.774894    -4.717936
H      1.515865     -2.655548    -6.767652
C     -0.622701     -0.971792     1.443377
H      0.177645     -1.676055     1.213455
H     -1.531693     -1.582361     1.525445
C     -0.795359     -0.058328     0.249339
C     -0.833611     -0.557188    -1.058451
H     -1.441734      0.801264     0.408262
H     -1.362650      0.021390    -1.808373
C     -0.701023     -1.983617    -1.381444
O     -0.106315     -2.836936    -0.758478
O     -1.343905     -2.286556    -2.539974
H     -1.158752     -3.220318    -2.717540
49
 -1042.02608775 -1041.65956400  2.65 2.31
C      2.330453     -0.286930    -1.790337
C      3.548178      0.629916    -2.109297
H      2.675223     -1.324762    -1.759206
H      4.392753      0.088518    -2.550632
C      3.298611      1.859823    -2.935036
C      3.486258      3.091273    -2.458527
H      2.995607      1.718491    -3.970308
H      3.338928      3.954285    -3.102190
C      3.888593      3.328810    -1.062983
C      3.977793      2.325681    -0.189113
H      4.094384      4.349858    -0.754568
H      4.250796      2.524506     0.844702
C      3.689457      0.910296    -0.586030
C      2.264106      0.300732    -0.357848
H      4.437677      0.246982    -0.141434
H      2.208603     -0.435491     0.444685
C      1.031432     -0.205100    -2.582632
H      0.852141      0.826321    -2.904084
H      1.088240     -0.806994    -3.498980
C     -0.130480     -0.665100    -1.726114
C     -0.002242     -1.760638    -0.873952
H     -1.117127     -0.453781    -2.126779
H      0.967572     -2.237603    -0.772621
C     -0.974550     -2.129453     0.045762
C     -2.154681     -1.417772     0.189733
H     -0.705872     -2.871224     0.790687
H     -2.551627     -0.903645    -0.680402
C     -3.152447     -1.663044     1.244369
C     -2.846637     -2.339722     2.431313
C     -4.458223     -1.196244     1.070511
C     -3.822629     -2.566770     3.388994
H     -1.834046     -2.683063     2.615531
C     -5.436903     -1.423842     2.028567
H     -4.711008     -0.656627     0.161388
C     -5.123626     -2.115453     3.191402
H     -3.566312     -3.096393     4.301393
H     -6.446824     -1.061242     1.864781
H     -5.885364     -2.297425     3.942732
C      1.163429      1.344656    -0.170181
H      1.261575      1.755106     0.838444
H      1.351145      2.175912    -0.856306
C     -0.299949      0.947501    -0.397650
C     -1.193324      0.646191     0.632844
H     -0.766753      1.530326    -1.189583
H     -2.203615      1.034141     0.583114
C     -0.713575      0.297173     1.973873
O      0.341825     -0.234597     2.242840
O     -1.607613      0.623791     2.940217
H     -1.229355      0.322627     3.778909
49
 -1042.02553148 -1041.65833200  3.00 3.09
C     -0.391585      2.993061     0.835376
C     -0.694645      4.302921     0.028216
H     -0.544641      3.094030     1.913906
H     -1.345883      4.948173     0.625160
C      0.421719      5.113690    -0.553379
C      0.848392      4.911035    -1.800441
H      0.890623      5.871321     0.070048
H      1.665837      5.498797    -2.208149
C      0.247687      3.871900    -2.652042
C     -0.824253      3.179115    -2.262959
H      0.705699      3.674839    -3.617577
H     -1.241266      2.410433    -2.909482
C     -1.533603      3.460644    -0.970210
C     -1.581194      2.325380     0.091164
H     -2.521011      3.875211    -1.205287
H     -2.485406      2.492090     0.686779
C      0.977335      2.372304     0.561583
H      1.289579      2.600994    -0.459943
H      1.725938      2.844260     1.211218
C      1.023992      0.873086     0.740370
C      0.475657      0.207760     1.833545
H      1.877274      0.407437     0.257383
H     -0.132435      0.763669     2.543874
C      0.458969     -1.181244     1.912606
C      1.045182     -1.977092     0.940061
H     -0.166753     -1.637743     2.672414
H      1.895235     -1.576709     0.397751
C      0.969827     -3.447321     0.901218
C      1.885619     -4.151943     0.115595
C      0.008997     -4.180452     1.607126
C      1.871211     -5.538151     0.059944
H      2.626074     -3.599127    -0.456326
C     -0.007917     -5.565487     1.553053
H     -0.737919     -3.665337     2.201434
C      0.925317     -6.252522     0.784348
H      2.600700     -6.061277    -0.550307
H     -0.758288     -6.115154     2.112836
H      0.910466     -7.337051     0.746437
C     -1.579241      0.841657    -0.280088
H     -1.936634      0.275456     0.580169
H     -2.324218      0.686577    -1.071957
C     -0.275464      0.229276    -0.744113
C     -0.105502     -1.146993    -0.931136
H      0.296228      0.835664    -1.442069
H      0.672291     -1.456250    -1.622087
C     -1.148591     -2.179549    -0.836522
O     -1.178031     -3.149937    -1.557571
O     -2.098326     -1.995777     0.120246
H     -2.703040     -2.745671     0.027782
49
 -1042.02490344 -1041.65808500  3.39 3.24
C      0.657455      0.705787     3.445745
C     -0.646750      1.528391     3.679363
H      1.180182      0.642732     4.404919
H     -0.633158      2.027412     4.655781
C     -1.088616      2.552330     2.676434
C     -2.245654      2.449610     2.022817
H     -0.460510      3.430314     2.540159
H     -2.566607      3.238854     1.348707
C     -3.098592      1.255091     2.146285
C     -2.718806      0.201211     2.869114
H     -4.031398      1.231954     1.589951
H     -3.342901     -0.688957     2.903808
C     -1.460074      0.207301     3.682146
C     -0.182944     -0.587256     3.231216
H     -1.721553     -0.087152     4.703822
H      0.073045     -1.371436     3.950311
C      1.710176      1.117776     2.408705
H      1.926964      2.184844     2.542941
H      2.630153      0.587846     2.677493
C      1.454212      0.860799     0.934826
C      2.342376      0.041363     0.242878
H      0.972548      1.669919     0.397357
H      3.084137     -0.505052     0.822516
C      2.214211     -0.292960    -1.098546
C      1.165758      0.186706    -1.868512
H      2.844447     -1.087557    -1.482451
H      0.752498      1.158383    -1.614426
C      0.906916     -0.219308    -3.261898
C      0.137694      0.608929    -4.082958
C      1.392081     -1.416367    -3.801411
C     -0.111992      0.276785    -5.408034
H     -0.261131      1.534473    -3.675893
C      1.142099     -1.750144    -5.123626
H      1.960571     -2.100405    -3.180211
C      0.394228     -0.903755    -5.935606
H     -0.702583      0.942776    -6.029246
H      1.529585     -2.681625    -5.524691
H      0.203086     -1.167462    -6.970946
C     -0.153562     -1.222886     1.843004
H      0.784812     -1.766456     1.709524
H     -0.942541     -1.982595     1.790781
C     -0.350200     -0.246138     0.709395
C     -0.538454     -0.637542    -0.618840
H     -0.909883      0.638974     0.970612
H     -1.225880     -0.063139    -1.229651
C     -0.355999     -2.033088    -1.037080
O      0.426102     -2.834376    -0.574970
O     -1.177169     -2.362153    -2.067775
H     -0.958385     -3.272750    -2.313842
49
 -1042.02158380 -1041.65479600  5.47 5.31
C     -0.331786      1.910910    -2.185342
C      0.505207      2.209551    -3.463953
H     -1.393308      1.978186    -2.441584
H     -0.062347      2.737237    -4.238981
C      1.821254      2.912215    -3.287290
C      2.984670      2.341307    -3.602401
H      1.799380      3.939095    -2.928797
H      3.911619      2.899651    -3.503326
C      3.060747      0.953006    -4.084742
C      1.978970      0.174327    -4.123086
H      4.028711      0.569116    -4.394091
H      2.059382     -0.857094    -4.458540
C      0.634838      0.676609    -3.692645
C      0.132800      0.432637    -2.228304
H     -0.127869      0.327973    -4.395816
H     -0.669408     -0.301391    -2.141888
C     -0.079082      2.635056    -0.868611
H      0.987397      2.861175    -0.764056
H     -0.601605      3.600317    -0.843358
C     -0.517316      1.770808     0.294672
C     -1.687966      1.019489     0.235936
H     -0.176815      2.096578     1.272757
H     -2.266522      1.017987    -0.683364
C     -2.034209      0.074890     1.192979
C     -1.225470     -0.192262     2.287329
H     -2.863290     -0.588760     0.969266
H     -0.621825      0.620319     2.680554
C     -1.460091     -1.279843     3.252270
C     -2.218369     -2.413937     2.940865
C     -0.892211     -1.197946     4.526558
C     -2.426791     -3.408743     3.882926
H     -2.639132     -2.530107     1.947617
C     -1.101209     -2.192318     5.472444
H     -0.286688     -0.332204     4.782094
C     -1.875029     -3.301142     5.155150
H     -3.020585     -4.279261     3.622139
H     -0.659713     -2.099493     6.459735
H     -2.042823     -4.080948     5.891102
C      1.246667      0.099931    -1.233937
H      1.562118     -0.932308    -1.410618
H      2.115421      0.721124    -1.470342
C      1.000419      0.293377     0.265606
C      0.699471     -0.730581     1.166174
H      1.673689      1.031007     0.697762
H      1.183960     -0.712409     2.135556
C      0.321251     -2.095231     0.769518
O      0.670087     -3.091351     1.357291
O     -0.479853     -2.170910    -0.327243
H     -0.616744     -3.115641    -0.485982
49
 -1042.02091987 -1041.65354000  5.89 6.09
C     -0.096931      3.267411    -1.375331
C      1.360170      3.237733    -1.930919
H     -0.542493      4.219345    -1.679878
H      1.669669      4.227094    -2.288706
C      2.484197      2.711315    -1.088803
C      3.198474      1.644697    -1.447827
H      2.749433      3.270193    -0.193701
H      4.046167      1.325317    -0.848078
C      2.841090      0.837465    -2.626890
C      1.752423      1.104737    -3.348714
H      3.464253     -0.018580    -2.869704
H      1.483211      0.464723    -4.185990
C      0.889048      2.298040    -3.072158
C     -0.516180      2.158651    -2.385766
H      0.774134      2.851204    -4.010095
H     -1.319120      2.488752    -3.052015
C     -0.408330      3.107460     0.119044
H      0.247807      3.784347     0.680437
H     -1.426015      3.485769     0.263644
C     -0.341236      1.733084     0.757520
C     -1.489589      1.216718     1.350364
H      0.622300      1.457254     1.171145
H     -2.422880      1.758553     1.205446
C     -1.569170     -0.041961     1.932105
C     -0.476113     -0.894671     1.974759
H     -2.553387     -0.414933     2.194246
H      0.510303     -0.443810     2.032381
C     -0.519778     -2.281318     2.471992
C     -1.701471     -3.028910     2.521962
C      0.662806     -2.892223     2.896285
C     -1.700880     -4.325747     3.011411
H     -2.631538     -2.598834     2.166003
C      0.665843     -4.190454     3.388751
H      1.593776     -2.333448     2.848163
C     -0.519277     -4.911608     3.452767
H     -2.629231     -4.887371     3.045325
H      1.596006     -4.638565     3.723794
H     -0.523122     -5.926287     3.837993
C     -0.935131      0.807033    -1.809876
H     -1.944357      0.894119    -1.399659
H     -1.003258      0.082971    -2.631016
C      0.008306      0.266751    -0.762788
C     -0.050410     -1.026165    -0.237243
H      1.018923      0.637688    -0.842894
H      0.891101     -1.510562    -0.002187
C     -1.088299     -2.010821    -0.579294
O     -0.867927     -3.187310    -0.746375
O     -2.348556     -1.511841    -0.689514
H     -2.904766     -2.263004    -0.940119
