49
 -1042.02755915 -1041.66134100  0.00 0.00
C      2.319229      1.164834    -1.147622
C      3.550878      2.105609    -1.127758
H      2.704111      0.135661    -1.114522
H      4.448484      1.691813    -1.600704
C      3.315029      3.502478    -1.627176
C      3.420659      4.572711    -0.837581
H      3.077624      3.625562    -2.681647
H      3.271503      5.568189    -1.247297
C      3.755394      4.456670     0.591177
C      3.813017      3.266697     1.190872
H      3.952327      5.367941     1.148726
H      4.056599      3.192882     2.247825
C      3.498507      2.015759     0.432446
C      2.007290      1.605506     0.278115
H      4.091588      1.168674     0.790542
H      1.433656      2.541329     0.228664
C      1.132417      1.199121    -2.085194
H      1.415833      0.907629    -3.105545
H      0.711396      2.209439    -2.142978
C      0.102092      0.218569    -1.556592
C     -1.232142      0.269518    -1.946086
H      0.525145     -0.750615    -1.303130
H     -1.575388      1.140357    -2.501864
C     -2.184233     -0.632624    -1.490999
C     -1.844054     -1.677063    -0.633341
H     -3.230604     -0.428837    -1.697254
H     -0.852787     -2.111084    -0.723942
C     -2.844686     -2.594721    -0.054406
C     -2.482126     -3.911909     0.241466
C     -4.152503     -2.189167     0.229726
C     -3.405129     -4.806430     0.765058
H     -1.463228     -4.237386     0.051357
C     -5.075252     -3.081601     0.756086
H     -4.454590     -1.163901     0.038653
C     -4.707637     -4.396391     1.020754
H     -3.106051     -5.828952     0.973965
H     -6.086993     -2.748714     0.965779
H     -5.430808     -5.094768     1.429623
C      1.251571      0.596334     1.114333
H      1.207354      0.916146     2.164599
H      1.743140     -0.379716     1.096631
C     -0.182248      0.495899     0.610690
C     -1.078785     -0.483917     1.058663
H     -0.641784      1.467198     0.443334
H     -2.091992     -0.178780     1.290141
C     -0.593204     -1.650100     1.818092
O      0.408171     -2.290597     1.581276
O     -1.428869     -1.982410     2.829092
H     -1.067923     -2.782841     3.237949
49
 -1042.02337820 -1041.65728400  2.62 2.55
C     -1.024941      2.546735    -0.591530
C     -0.890711      4.071970    -0.833096
H     -1.264339      2.090660    -1.562800
H     -1.521547      4.463509    -1.638938
C     -1.028494      4.940760     0.384584
C     -0.022849      5.681875     0.853159
H     -2.001037      4.973058     0.870899
H     -0.174691      6.319739     1.719872
C      1.305415      5.682921     0.218892
C      1.603767      4.823509    -0.756591
H      2.041151      6.401967     0.567783
H      2.589311      4.829899    -1.215454
C      0.604167      3.804558    -1.205353
C      0.486108      2.484573    -0.393537
H      0.703321      3.587312    -2.273367
H      0.706204      2.743498     0.651118
C     -1.830330      1.838945     0.476692
H     -2.909720      1.951320     0.306890
H     -1.614091      2.256741     1.466690
C     -1.468336      0.367009     0.426659
C     -1.723387     -0.495066     1.487460
H     -1.486439     -0.043282    -0.580240
H     -2.036879     -0.066736     2.437910
C     -1.404372     -1.845861     1.454817
C     -0.822587     -2.431580     0.330893
H     -1.473546     -2.414656     2.377203
H     -1.089451     -2.036548    -0.643863
C     -0.380965     -3.838965     0.301609
C      0.102978     -4.493236     1.438711
C     -0.419149     -4.549512    -0.901330
C      0.497561     -5.822160     1.381444
H      0.173433     -3.958722     2.381091
C     -0.027131     -5.879248    -0.960563
H     -0.770097     -4.051229    -1.800834
C      0.429110     -6.523430     0.182584
H      0.866020     -6.313265     2.276682
H     -0.079362     -6.415431    -1.903056
H      0.735543     -7.563670     0.139067
C      1.124505      1.152759    -0.726974
H      2.220297      1.230359    -0.720657
H      0.830535      0.826500    -1.727320
C      0.731085      0.134591     0.336026
C      1.023356     -1.234396     0.258247
H      0.808525      0.536095     1.343579
H      1.369139     -1.718714     1.163423
C      1.596380     -1.863784    -0.946941
O      2.535644     -2.619877    -0.935288
O      0.953112     -1.547974    -2.106467
H      1.427786     -2.013517    -2.809788
49
 -1042.02079426 -1041.65463400  4.25 4.21
C     -0.595663      0.086233     2.779687
C     -0.709227      0.798379     4.151697
H     -1.619185     -0.156224     2.460292
H     -1.562607      0.480819     4.761144
C      0.536711      0.803789     4.990660
C      1.186278      1.927043     5.300942
H      0.889496     -0.151869     5.372329
H      2.066947      1.888597     5.936571
C      0.737535      3.244429     4.821218
C     -0.246591      3.353701     3.927679
H      1.231498      4.129452     5.212095
H     -0.566988      4.331460     3.576611
C     -0.896421      2.132337     3.357555
C     -0.204144      1.422739     2.160374
H     -1.954344      2.305379     3.137539
H      0.876627      1.562028     2.301552
C      0.309134     -1.063201     2.396309
H      0.006870     -1.997394     2.888422
H      1.343524     -0.859745     2.696057
C      0.214450     -1.243739     0.891756
C      1.189826     -1.937717     0.179889
H     -0.809860     -1.280054     0.528223
H      2.120939     -2.183346     0.687700
C      1.116668     -2.152430    -1.189286
C      0.021467     -1.724215    -1.935155
H      1.994248     -2.537049    -1.700089
H     -0.952624     -1.707299    -1.455977
C     -0.036078     -1.827846    -3.405904
C     -1.273560     -1.972653    -4.039695
C      1.112248     -1.763417    -4.202912
C     -1.358710     -2.096201    -5.418762
H     -2.178286     -1.986792    -3.439172
C      1.027738     -1.884586    -5.582689
H      2.084418     -1.619198    -3.741103
C     -0.207678     -2.058690    -6.196436
H     -2.328737     -2.222077    -5.889580
H      1.930299     -1.838007    -6.184030
H     -0.273535     -2.156317    -7.275293
C     -0.545134      1.573001     0.694754
H     -0.378509      2.605523     0.358621
H     -1.595437      1.337465     0.507323
C      0.368306      0.678333    -0.134557
C      0.157374      0.454909    -1.503412
H      1.417136      0.777589     0.136059
H      1.026953      0.491630    -2.151960
C     -1.150069      0.766176    -2.123828
O     -2.219733      0.542124    -1.613906
O     -1.107241      1.302769    -3.368806
H     -0.196333      1.424161    -3.660506
