49
 -1042.03516741 -1041.66797400  0.00 0.00
C      0.683815      0.243221     3.066539
C     -0.197992      0.120682     4.357014
H      1.758615      0.258068     3.269527
H      0.409728     -0.290773     5.168274
C     -0.976897      1.297401     4.857607
C     -2.239807      1.502345     4.482288
H     -0.484468      1.995712     5.530176
H     -2.791519      2.365541     4.843407
C     -2.915780      0.585487     3.550584
C     -2.344202     -0.549885     3.145221
H     -3.904078      0.859230     3.191208
H     -2.864344     -1.203029     2.448386
C     -1.009865     -1.004718     3.662363
C      0.145200     -1.148825     2.630489
H     -1.164650     -1.904212     4.269748
H      0.825923     -1.914080     3.018384
C      0.316056      1.401606     2.140090
H     -0.753604      1.610720     2.211135
H      0.819664      2.314562     2.483497
C      0.653629      1.148691     0.689268
C      1.860489      0.589231     0.282816
H      0.133003      1.797858    -0.006032
H      2.551048      0.214193     1.034968
C      2.104249      0.247240    -1.046494
C      1.190891      0.531436    -2.048340
H      2.958626     -0.386666    -1.264116
H      0.561798      1.408177    -1.933076
C      1.318094      0.060470    -3.437019
C      2.022770     -1.099497    -3.775208
C      0.706485      0.785302    -4.464351
C      2.139661     -1.498023    -5.098719
H      2.479826     -1.702068    -2.996454
C      0.823343      0.388740    -5.788208
H      0.136090      1.676186    -4.215478
C      1.545981     -0.753376    -6.112117
H      2.693906     -2.399140    -5.342391
H      0.349428      0.973687    -6.570413
H      1.640213     -1.066116    -7.147091
C     -0.123810     -1.496641     1.164527
H      0.797036     -1.894744     0.723777
H     -0.850393     -2.319517     1.138832
C     -0.634245     -0.409261     0.244754
C     -0.617613     -0.638368    -1.127883
H     -1.456535      0.202298     0.602427
H     -0.194385     -1.550736    -1.529334
C     -1.588885      0.079783    -1.954554
O     -2.048039      1.173855    -1.695899
O     -1.927228     -0.587215    -3.083492
H     -2.537230     -0.014829    -3.570640
49
 -1042.03240403 -1041.66522500  1.73 1.73
C      0.491293     -0.104717     3.076874
C     -0.458050     -0.427889     4.282004
H      1.549437     -0.063862     3.351126
H      0.122161     -0.905513     5.077015
C     -1.331037      0.638855     4.866894
C     -2.579056      0.825939     4.436377
H     -0.919837      1.272672     5.648985
H     -3.199430      1.610195     4.860586
C     -3.145282     -0.002065     3.359609
C     -2.487025     -1.049688     2.860224
H     -4.124646      0.264429     2.971460
H     -2.926997     -1.637769     2.058139
C     -1.161893     -1.498028     3.405839
C      0.058792     -1.456898     2.442452
H     -1.300692     -2.471916     3.889829
H      0.757384     -2.229574     2.780697
C      0.116585      1.140815     2.274454
H     -0.965505      1.288604     2.299935
H      0.547454      2.026765     2.758913
C      0.554193      1.084212     0.829924
C      1.810529      0.637435     0.437308
H      0.040927      1.786325     0.182363
H      2.478264      0.209494     1.181839
C      2.147179      0.466406    -0.903593
C      1.279952      0.810362    -1.929640
H      3.046986     -0.096075    -1.134284
H      0.603743      1.644121    -1.770760
C      1.523347      0.489568    -3.345903
C      2.305475     -0.600964    -3.741532
C      0.947493      1.282773    -4.342113
C      2.532263     -0.862682    -5.084650
H      2.737119     -1.258047    -2.993061
C      1.173609      1.023751    -5.685366
H      0.310110      2.114415    -4.055412
C      1.973154     -0.048018    -6.063115
H      3.145267     -1.711463    -5.371506
H      0.724104      1.661201    -6.440294
H      2.153160     -0.252677    -7.113633
C     -0.099975     -1.637578     0.931433
H      0.868097     -1.927614     0.508323
H     -0.771452     -2.489347     0.759441
C     -0.623141     -0.476692     0.114122
C     -0.501603     -0.536945    -1.271099
H     -1.498658      0.036888     0.496575
H      0.007108     -1.371435    -1.736603
C     -1.470139      0.140083    -2.139147
O     -1.786154     -0.206929    -3.251392
O     -2.005035      1.262833    -1.567657
H     -2.649576      1.606238    -2.201975
49
 -1042.02791803 -1041.66096500  4.55 4.40
C      1.865345      1.604176     1.760113
C      1.766529      2.075817     3.240622
H      2.915775      1.400246     1.532083
H      2.718609      2.439449     3.643714
C      0.699254      3.076059     3.583724
C     -0.297345      2.797584     4.425157
H      0.786408      4.072041     3.155061
H     -1.022987      3.563552     4.684837
C     -0.455885      1.462420     5.023584
C      0.326659      0.445311     4.661721
H     -1.242281      1.319282     5.759144
H      0.178590     -0.540646     5.096024
C      1.411834      0.615781     3.643125
C      1.138692      0.288031     2.135434
H      2.308290      0.079539     3.969293
H      1.630137     -0.620454     1.778046
C      1.238723      2.390100     0.613688
H      0.325504      2.888685     0.954316
H      1.912369      3.184180     0.266370
C      0.894586      1.455381    -0.527495
C      1.744592      0.410881    -0.877730
H      0.242317      1.862333    -1.292823
H      2.644867      0.247596    -0.292643
C      1.393772     -0.586736    -1.781763
C      0.169027     -0.589782    -2.428787
H      2.039982     -1.456298    -1.856065
H     -0.310757      0.364943    -2.620816
C     -0.295986     -1.683300    -3.299605
C      0.137421     -3.003946    -3.141926
C     -1.215871     -1.405390    -4.315095
C     -0.308695     -4.003546    -3.993782
H      0.824281     -3.256353    -2.340152
C     -1.664271     -2.405017    -5.166312
H     -1.580482     -0.389136    -4.436235
C     -1.207465     -3.708418    -5.013057
H      0.041275     -5.022251    -3.858390
H     -2.371413     -2.164958    -5.954267
H     -1.555059     -4.491829    -5.678894
C     -0.344120      0.260472     1.758323
H     -0.763699     -0.685414     2.116609
H     -0.858531      1.044404     2.320795
C     -0.765629      0.453861     0.298612
C     -1.135432     -0.615929    -0.509438
H     -1.366726      1.343762     0.126499
H     -0.869309     -1.629900    -0.234534
C     -2.327967     -0.449118    -1.350092
O     -2.728941      0.600767    -1.807533
O     -2.966632     -1.620057    -1.584906
H     -3.699350     -1.418170    -2.184560
49
 -1042.02870757 -1041.66089600  4.05 4.44
C      0.478082     -0.216509     3.560046
C     -0.981500      0.251515     3.852232
H      0.957481     -0.415632     4.523348
H     -1.119329      0.485875     4.914499
C     -1.576721      1.385203     3.070787
C     -2.639310      1.224046     2.283552
H     -1.141132      2.373373     3.204391
H     -3.067645      2.070460     1.755556
C     -3.223524     -0.105723     2.040144
C     -2.676657     -1.210217     2.547511
H     -4.084898     -0.170814     1.381839
H     -3.098443     -2.184851     2.311831
C     -1.494318     -1.161270     3.467747
C     -0.057407     -1.553997     2.969006
H     -1.736202     -1.747092     4.360517
H      0.328527     -2.429002     3.500877
C      1.464507      0.644467     2.758204
H      1.427963      1.666619     3.154631
H      2.465861      0.266709     2.990752
C      1.343321      0.709109     1.247615
C      2.400554      0.243716     0.475025
H      0.718457      1.503413     0.857009
H      3.213280     -0.271267     0.984888
C      2.394138      0.210714    -0.916351
C      1.315791      0.683157    -1.647670
H      3.189313     -0.332385    -1.417372
H      0.721593      1.483934    -1.217753
C      1.218967      0.591211    -3.116022
C      0.463062      1.537627    -3.813296
C      1.846995     -0.422534    -3.846646
C      0.364497      1.495596    -5.196958
H     -0.052433      2.316803    -3.258772
C      1.750861     -0.464689    -5.229999
H      2.413995     -1.190318    -3.329598
C      1.013673      0.496926    -5.912219
H     -0.220065      2.246859    -5.718886
H      2.248798     -1.256770    -5.780637
H      0.940001      0.463013    -6.994543
C      0.152463     -1.796241     1.475133
H      1.194445     -2.087805     1.299224
H     -0.461043     -2.653850     1.173137
C     -0.208951     -0.622200     0.599453
C     -0.230139     -0.729070    -0.786790
H     -0.945406      0.058291     0.995822
H      0.180418     -1.605690    -1.274766
C     -1.314281     -0.031281    -1.488523
O     -1.856426      0.988946    -1.116717
O     -1.671551     -0.647294    -2.640669
H     -2.349660     -0.091077    -3.050589
49
 -1042.02492138 -1041.65801200  6.43 6.25
C      2.666288      1.132766     0.763128
C      3.227359      1.702230     2.099078
H      3.482361      0.637229     0.229093
H      4.317505      1.815097     2.097326
C      2.625140      2.975444     2.622135
C      1.968134      3.031764     3.781425
H      2.781136      3.881699     2.040993
H      1.588197      3.981320     4.148416
C      1.730376      1.829460     4.596281
C      2.066107      0.617021     4.154386
H      1.255808      1.951681     5.565713
H      1.860225     -0.262596     4.759827
C      2.713596      0.421784     2.817534
C      1.841653      0.089946     1.558809
H      3.515671     -0.317757     2.903153
H      1.940579     -0.938188     1.201457
C      1.865273      1.988690    -0.211240
H      1.275113      2.729875     0.337672
H      2.530608      2.555640    -0.875516
C      0.932321      1.113478    -1.020631
C      1.336203     -0.136058    -1.475141
H      0.153005      1.631585    -1.569662
H      2.327846     -0.493724    -1.213530
C      0.466838     -1.063703    -2.039599
C     -0.882851     -0.798853    -2.211924
H      0.835089     -2.073234    -2.196802
H     -1.181489      0.231276    -2.376625
C     -1.855390     -1.793491    -2.695991
C     -2.988333     -1.364604    -3.392121
C     -1.697560     -3.165193    -2.472331
C     -3.916125     -2.273093    -3.880205
H     -3.138329     -0.301358    -3.558115
C     -2.623279     -4.075410    -2.960472
H     -0.846161     -3.526268    -1.903976
C     -3.734247     -3.634397    -3.671369
H     -4.782715     -1.916755    -4.428268
H     -2.481732     -5.136471    -2.779832
H     -4.457097     -4.347910    -4.053885
C      0.362952      0.448964     1.712869
H     -0.100810     -0.305845     2.356493
H      0.291984      1.391367     2.262910
C     -0.516712      0.621475     0.470818
C     -1.343623     -0.396376     0.009579
H     -0.939210      1.618045     0.373968
H     -1.171759     -1.416885     0.331812
C     -2.751499     -0.117322    -0.310080
O     -3.665633     -0.886917    -0.140693
O     -2.963296      1.134077    -0.815583
H     -3.919519      1.210489    -0.941282
49
 -1042.02549559 -1041.65797300  6.07 6.28
C      0.477389     -0.931911     3.408118
C     -0.948286     -0.457751     3.825795
H      0.955507     -1.349629     4.299388
H     -1.056647     -0.426725     4.916619
C     -1.496351      0.833858     3.295272
C     -2.590721      0.880373     2.536409
H     -1.004083      1.754855     3.600767
H     -2.992059      1.835528     2.210458
C     -3.255702     -0.346201     2.064848
C     -2.752047     -1.553231     2.322664
H     -4.147439     -0.242668     1.453144
H     -3.234536     -2.441882     1.921751
C     -1.542902     -1.740688     3.188211
C     -0.141446     -2.091733     2.573184
H     -1.790658     -2.479705     3.957147
H      0.207383     -3.074516     2.904878
C      1.499166      0.024573     2.777664
H      1.506814      0.951928     3.363556
H      2.483944     -0.431801     2.923872
C      1.378794      0.379952     1.309015
C      2.403198      0.002471     0.449571
H      0.806765      1.272349     1.083763
H      3.182366     -0.646846     0.845900
C      2.398413      0.228864    -0.922441
C      1.351092      0.889695    -1.548829
H      3.160149     -0.260010    -1.521714
H      0.811436      1.637081    -0.975929
C      1.261199      1.077159    -3.008089
C      0.590085      2.191130    -3.517745
C      1.813238      0.167014    -3.915080
C      0.502039      2.411594    -4.884812
H      0.134479      2.897046    -2.828798
C      1.728026      0.385926    -5.282311
H      2.312642     -0.724970    -3.550065
C      1.076625      1.511992    -5.773670
H     -0.014872      3.290533    -5.257057
H      2.166807     -0.329768    -5.970593
H      1.011651      1.682900    -6.843525
C      0.021595     -2.043615     1.055409
H      1.037510     -2.358837     0.790949
H     -0.653347     -2.786668     0.612831
C     -0.272900     -0.707509     0.418220
C     -0.257964     -0.567641    -0.966079
H     -0.978295     -0.078023     0.938334
H      0.133420     -1.371852    -1.578845
C     -1.311758      0.207904    -1.633947
O     -1.787097     -0.051457    -2.712635
O     -1.741365      1.286513    -0.913244
H     -2.441254      1.694395    -1.442331
