49
 -1042.02549559 -1041.65892200  0.00 0.00
C      0.472923     -2.280788    -1.590768
C      0.267672     -3.126156    -2.874427
H     -0.135720     -2.751257    -0.808278
H      0.085906     -4.191621    -2.694975
C      1.313526     -2.960571    -3.940425
C      1.037408     -2.442757    -5.138965
H      2.320572     -3.304459    -3.715029
H      1.816175     -2.369360    -5.893481
C     -0.313064     -1.975506    -5.493286
C     -1.278804     -1.899924    -4.576615
H     -0.502564     -1.686969    -6.523202
H     -2.271884     -1.550667    -4.848596
C     -1.000822     -2.253100    -3.149057
C     -0.352675     -1.174608    -2.237180
H     -1.880706     -2.686284    -2.664226
H      0.312209     -0.590042    -2.887760
C      1.775023     -1.799681    -0.981259
H      2.373725     -2.628527    -0.581961
H      2.380117     -1.303328    -1.747345
C      1.450835     -0.815943     0.139012
C      0.759807     -1.238261     1.274367
H      2.156643      0.000474     0.251502
H      0.345929     -2.244067     1.287957
C      0.400212     -0.390259     2.310128
C      0.733068      0.959993     2.292216
H     -0.292348     -0.761729     3.057683
H      1.647303      1.247793     1.782302
C      0.317757      1.921928     3.331685
C     -0.814876      1.728398     4.130719
C      1.070492      3.082962     3.526453
C     -1.158069      2.649921     5.108057
H     -1.443133      0.857346     3.978477
C      0.731529      4.003689     4.509058
H      1.943613      3.259228     2.903535
C     -0.384235      3.788681     5.307155
H     -2.039583      2.480995     5.718816
H      1.340505      4.891106     4.650775
H     -0.654662      4.505793     6.075651
C     -1.048769     -0.242360    -1.270482
H     -1.757487      0.413210    -1.793145
H     -1.620639     -0.793718    -0.520959
C      0.000666      0.636991    -0.609008
C     -0.293122      1.550310     0.409379
H      0.763707      0.988712    -1.302299
H      0.239602      2.494672     0.405449
C     -1.633738      1.610490     1.015900
O     -2.370749      0.678716     1.244808
O     -1.977217      2.881896     1.339801
H     -2.832057      2.828637     1.791848
49
 -1042.02118903 -1041.65443600  2.70 2.82
C      0.910142      0.118759    -2.635805
C      1.503480      0.880297    -3.849325
H     -0.162735      0.002938    -2.835543
H      1.001878      0.681171    -4.802849
C      2.991961      0.772232    -4.023939
C      3.802860      1.826942    -3.918936
H      3.400014     -0.205967    -4.268495
H      4.870976      1.711605    -4.083268
C      3.294694      3.171857    -3.602279
C      2.023513      3.362207    -3.246293
H      3.985216      4.008310    -3.660641
H      1.658977      4.359387    -3.012055
C      1.087795      2.200908    -3.121163
C      1.106518      1.380075    -1.802105
H      0.063280      2.481029    -3.383691
H      2.146738      1.398157    -1.449523
C      1.427015     -1.145163    -1.976624
H      1.327994     -2.019887    -2.632356
H      2.491667     -1.032651    -1.746055
C      0.641878     -1.376920    -0.690072
C     -0.727686     -1.637656    -0.728599
H      1.214357     -1.807563     0.124942
H     -1.248539     -1.553797    -1.680029
C     -1.503245     -1.809367     0.406886
C     -0.951161     -1.753698     1.683196
H     -2.581581     -1.830640     0.288820
H      0.077809     -2.081209     1.795731
C     -1.733884     -1.861969     2.928449
C     -1.092092     -2.264255     4.102886
C     -3.099873     -1.566103     2.994841
C     -1.791245     -2.404360     5.294084
H     -0.027607     -2.481980     4.076949
C     -3.799364     -1.700841     4.184071
H     -3.624546     -1.224077     2.109303
C     -3.151094     -2.125617     5.338705
H     -1.272040     -2.731885     6.189410
H     -4.859862     -1.470563     4.211897
H     -3.702521     -2.232990     6.267328
C      0.176263      1.516196    -0.615967
H      0.242097      2.517839    -0.171075
H     -0.862516      1.365540    -0.917341
C      0.595430      0.502379     0.437540
C     -0.080634      0.287768     1.642569
H      1.676998      0.413179     0.528880
H      0.529609      0.057809     2.508998
C     -1.302126      1.015899     2.042487
O     -1.479233      1.456329     3.152714
O     -2.239521      1.158964     1.071203
H     -2.956055      1.671389     1.472144
49
 -1042.01812061 -1041.65189900  4.63 4.41
C      2.452567     -0.613706     1.251214
C      3.306622     -1.045921     2.471180
H      2.617036      0.463568     1.121846
H      4.229553     -0.471670     2.608420
C      3.601063     -2.515637     2.575135
C      3.142784     -3.267649     3.577756
H      4.233213     -2.957622     1.808179
H      3.405187     -4.320846     3.633088
C      2.294652     -2.710799     4.644653
C      1.815063     -1.468870     4.566342
H      2.063458     -3.341501     5.498260
H      1.187288     -1.068569     5.358679
C      2.096846     -0.619724     3.366545
C      1.206550     -0.807702     2.106918
H      2.166441      0.439380     3.631853
H      0.938906     -1.873036     2.082560
C      2.364404     -1.267857    -0.112987
H      3.297200     -1.163954    -0.681951
H      2.174175     -2.340034     0.003385
C      1.219157     -0.621985    -0.888708
C      1.280634      0.723932    -1.251131
H      0.677885     -1.295691    -1.545047
H      2.084001      1.335759    -0.847282
C      0.268674      1.376803    -1.938153
C     -0.882165      0.709060    -2.337463
H      0.312476      2.458050    -2.008439
H     -0.800112     -0.350445    -2.559708
C     -2.027537      1.358027    -3.003348
C     -2.299769      2.725409    -2.879596
C     -2.890679      0.581845    -3.783227
C     -3.373179      3.295675    -3.545390
H     -1.680588      3.345936    -2.241539
C     -3.964090      1.153154    -4.453697
H     -2.705154     -0.485125    -3.877770
C     -4.206682      2.515661    -4.340568
H     -3.566240      4.358667    -3.439492
H     -4.611512      0.532871    -5.065687
H     -5.044358      2.968160    -4.861561
C      0.009892      0.017359     1.690111
H     -0.790499     -0.036248     2.439339
H      0.267982      1.072148     1.576678
C     -0.535760     -0.545338     0.386425
C     -1.589305      0.049231    -0.319437
H     -0.562071     -1.634370     0.368388
H     -2.295611     -0.624931    -0.797059
C     -2.114683      1.379198     0.064391
O     -1.454484      2.298697     0.472219
O     -3.455117      1.545654    -0.088773
H     -3.864120      0.744981    -0.435545
49
 -1042.01643387 -1041.64949900  5.69 5.91
C      2.009736      1.658007     0.883332
C      2.864421      2.951594     0.837107
H      2.623424      0.855854     0.452495
H      3.943834      2.788553     0.930319
C      2.432483      4.050716     1.766349
C      1.979876      5.225370     1.323470
H      2.523157      3.870283     2.835141
H      1.706358      6.005082     2.029431
C      1.853296      5.520099    -0.113329
C      2.032748      4.568606    -1.030454
H      1.604453      6.535206    -0.409107
H      1.935210      4.796026    -2.089140
C      2.329375      3.161337    -0.616822
C      1.138897      2.243495    -0.223801
H      2.975207      2.658130    -1.342752
H      0.384659      2.895393     0.237589
C      1.232281      1.104372     2.061407
H      1.899054      0.759088     2.862045
H      0.596774      1.888317     2.485937
C      0.370428     -0.054705     1.577823
C      0.953405     -1.251386     1.166251
H     -0.621627     -0.102892     2.013727
H      2.039054     -1.311004     1.110577
C      0.220882     -2.327303     0.676759
C     -1.168071     -2.263519     0.548409
H      0.755554     -3.186709     0.281470
H     -1.700791     -1.658466     1.274914
C     -1.994451     -3.344895    -0.021223
C     -1.509753     -4.252216    -0.969171
C     -3.326571     -3.464374     0.384960
C     -2.321215     -5.262436    -1.463316
H     -0.494606     -4.165154    -1.340465
C     -4.138582     -4.477485    -0.105682
H     -3.726951     -2.758227     1.107742
C     -3.636506     -5.384504    -1.030247
H     -1.925439     -5.958050    -2.196649
H     -5.166136     -4.559102     0.234643
H     -4.267997     -6.177691    -1.417467
C      0.448855      1.226267    -1.105983
H     -0.018933      1.704619    -1.976695
H      1.177583      0.511035    -1.497120
C     -0.656831      0.549672    -0.308007
C     -1.403319     -0.537759    -0.776822
H     -1.236023      1.258378     0.281074
H     -2.467991     -0.526406    -0.570340
C     -1.105226     -1.187929    -2.086144
O     -1.931453     -1.295832    -2.949537
O      0.152470     -1.651812    -2.280898
H      0.634995     -1.625645    -1.441798
