49
 -1042.02409596 -1041.65692900  0.00 0.00
C     -0.517179     -2.219247     1.760659
C     -0.002126     -3.514960     2.444825
H     -1.347789     -2.497038     1.101282
H      0.554860     -3.265926     3.353571
C     -0.980504     -4.618772     2.697159
C     -1.255488     -5.515910     1.749776
H     -1.489556     -4.657187     3.657283
H     -1.989375     -6.297777     1.923236
C     -0.578822     -5.474491     0.443501
C      0.428820     -4.635069     0.196147
H     -0.911186     -6.167176    -0.325121
H      0.916309     -4.645961    -0.775932
C      0.966515     -3.688926     1.231734
C      0.771860     -2.172913     0.943274
H      1.994857     -3.970940     1.484273
H      1.529829     -1.631430     1.522917
C     -0.828386     -0.921438     2.492640
H     -1.875559     -0.884886     2.808955
H     -0.214497     -0.857393     3.401016
C     -0.499613      0.269184     1.610344
C     -1.392341      1.329151     1.477061
H      0.561691      0.479935     1.516388
H     -2.383887      1.223424     1.912734
C     -1.157842      2.419580     0.655246
C      0.011246      2.530732    -0.101166
H     -1.968171      3.122672     0.487657
H      0.929676      2.120734     0.309321
C      0.224642      3.644788    -1.049085
C     -0.829512      4.221538    -1.763829
C      1.515236      4.136096    -1.264306
C     -0.605767      5.279111    -2.633245
H     -1.838529      3.839390    -1.642085
C      1.740320      5.196515    -2.131216
H      2.351322      3.680322    -0.742009
C      0.680023      5.776282    -2.816203
H     -1.438526      5.715436    -3.175976
H      2.749161      5.572012    -2.272290
H      0.854603      6.605878    -3.493860
C      0.652334     -1.540467    -0.436953
H      1.626172     -1.205939    -0.793438
H      0.276617     -2.285006    -1.150889
C     -0.359039     -0.397838    -0.477726
C     -0.191426      0.730824    -1.298866
H     -1.390099     -0.728297    -0.399915
H     -1.073125      1.121852    -1.793374
C      1.064520      0.956287    -2.042892
O      2.189889      0.790559    -1.625963
O      0.830895      1.428076    -3.289265
H      1.696949      1.604616    -3.685392
49
 -1042.01986118 -1041.65293200  2.66 2.51
C     -0.291384     -2.829745     0.188051
C     -0.188503     -4.211071    -0.514771
H     -1.335566     -2.683468     0.488679
H      0.847858     -4.563192    -0.503504
C     -1.130185     -5.293392    -0.088990
C     -2.348557     -5.386578    -0.622855
H     -0.815112     -5.983987     0.689630
H     -3.042297     -6.153240    -0.289766
C     -2.791638     -4.456906    -1.674035
C     -1.960551     -3.575233    -2.233697
H     -3.825275     -4.515969    -2.004436
H     -2.319894     -2.916500    -3.020949
C     -0.509803     -3.478248    -1.856100
C     -0.067050     -2.156804    -1.164889
H      0.109715     -3.767593    -2.712484
H      1.012647     -2.047037    -1.325650
C      0.650866     -2.351230     1.284579
H      0.268458     -2.612720     2.276258
H      1.623663     -2.848534     1.172855
C      0.866036     -0.853132     1.177892
C      0.786635     -0.034081     2.301354
H      1.531450     -0.553701     0.373943
H      0.436618     -0.473213     3.233476
C      0.933514      1.342417     2.248184
C      1.179207      2.008502     1.044133
H      0.698604      1.921074     3.136588
H      1.783660      1.503058     0.297580
C      1.241642      3.482301     0.965629
C      2.119497      4.094880     0.067038
C      0.427066      4.301508     1.752825
C      2.213160      5.477228    -0.012937
H      2.744413      3.475229    -0.570083
C      0.516474      5.683685     1.672518
H     -0.287484      3.854595     2.437365
C      1.414565      6.278540     0.793192
H      2.913972      5.930771    -0.707039
H     -0.122558      6.301431     2.295748
H      1.486337      7.359799     0.732754
C     -0.740159     -0.801696    -1.339546
H     -0.287510     -0.251755    -2.163212
H     -1.798140     -0.950385    -1.590586
C     -0.744462      0.021527    -0.053207
C     -0.610421      1.420408    -0.028643
H     -1.440633     -0.356971     0.688530
H     -1.239664      1.957323     0.671846
C     -0.355630      2.233562    -1.237696
O     -0.988569      3.217007    -1.530372
O      0.690732      1.811293    -2.001509
H      0.744250      2.430243    -2.743693
49
 -1042.01986118 -1041.65293100  2.66 2.51
C      0.034740     -2.298586    -1.686139
C      0.059874     -2.868394    -3.130885
H     -0.889821     -2.641172    -1.206650
H      1.084453     -2.873372    -3.516077
C     -0.618661     -4.177378    -3.387054
C     -1.924616     -4.228528    -3.651612
H     -0.033415     -5.091423    -3.320346
H     -2.421796     -5.181960    -3.805797
C     -2.731390     -3.001021    -3.740690
C     -2.178048     -1.787230    -3.698262
H     -3.806352     -3.105024    -3.861930
H     -2.805076     -0.902895    -3.785495
C     -0.695065     -1.577679    -3.582051
C     -0.197219     -0.906172    -2.270090
H     -0.320621     -1.107484    -4.498362
H      0.777520     -0.450004    -2.483245
C      1.201701     -2.377534    -0.710868
H      1.142440     -3.281048    -0.095894
H      2.143984     -2.431138    -1.272432
C      1.239418     -1.140709     0.167096
C      1.407785     -1.243077     1.545676
H      1.618603     -0.252435    -0.328846
H      1.378847     -2.233990     1.994513
C      1.406676     -0.147250     2.393207
C      1.237966      1.153737     1.910780
H      1.381884     -0.323531     3.464467
H      1.649057      1.391408     0.934718
C      1.140133      2.316129     2.817101
C      0.511253      2.233599     4.062899
C      1.666488      3.550233     2.425582
C      0.447050      3.335713     4.903183
H      0.064751      1.296497     4.381306
C      1.606425      4.653355     3.265563
H      2.138696      3.640585     1.451279
C      0.999820      4.549899     4.510966
H     -0.042406      3.248903     5.868214
H      2.036492      5.597786     2.946644
H      0.952019      5.411065     5.169776
C     -1.013405      0.039543    -1.398675
H     -0.865710      1.072342    -1.710541
H     -2.080854     -0.186232    -1.517145
C     -0.727588     -0.141028     0.090648
C     -0.720934      0.920254     1.012098
H     -1.146587     -1.057729     0.493369
H     -1.171670      0.728062     1.978953
C     -0.895871      2.336240     0.621803
O     -1.673275      3.087885     1.154822
O     -0.075560      2.759283    -0.380553
H     -0.292129      3.691500    -0.525023
49
 -1042.01700808 -1041.65106500  4.45 3.68
C      1.988242      1.481820     1.448259
C      3.457896      1.966190     1.581555
H      1.767397      0.841310     2.310303
H      3.614329      2.866268     0.978701
C      4.026488      2.131536     2.955866
C      4.563649      1.095361     3.600625
H      3.963945      3.106154     3.434027
H      4.947413      1.209623     4.610408
C      4.651301     -0.231179     2.969206
C      4.329676     -0.426787     1.688820
H      5.007213     -1.061128     3.573822
H      4.424323     -1.418268     1.252085
C      3.879280      0.688082     0.788373
C      2.414013      0.604420     0.273591
H      4.624955      0.844708     0.000865
H      2.355574      1.201893    -0.644716
C      0.805027      2.387298     1.139654
H      0.346372      2.768361     2.057449
H      1.149699      3.257668     0.565591
C     -0.221455      1.642631     0.304138
C     -1.575312      1.696397     0.629530
H      0.048715      1.526398    -0.741253
H     -1.858421      2.164758     1.570115
C     -2.553968      1.015509    -0.075413
C     -2.245978      0.229160    -1.187034
H     -3.557234      0.980449     0.338569
H     -1.423802      0.536740    -1.826567
C     -3.268729     -0.587561    -1.873564
C     -4.330432     -1.179009    -1.180703
C     -3.173595     -0.808190    -3.250236
C     -5.287643     -1.928776    -1.849788
H     -4.414823     -1.049166    -0.105670
C     -4.131617     -1.554688    -3.920655
H     -2.334777     -0.389593    -3.798075
C     -5.196246     -2.114066    -3.224563
H     -6.106991     -2.375370    -1.295123
H     -4.046499     -1.701556    -4.992882
H     -5.945978     -2.697548    -3.749233
C      1.610893     -0.675175     0.089300
H      1.714681     -1.051992    -0.927413
H      1.989711     -1.447386     0.771196
C      0.137036     -0.507679     0.453311
C     -0.885429     -1.183130    -0.238395
H     -0.039750     -0.433642     1.521965
H     -1.700422     -1.572755     0.365161
C     -0.605654     -1.916699    -1.498450
O      0.102063     -1.516581    -2.388196
O     -1.239059     -3.107106    -1.639756
H     -1.776079     -3.307711    -0.864798
49
 -1042.01087123 -1041.64432100  8.30 7.91
C      1.701496      1.229106     1.878979
C      3.152961      1.535523     2.339841
H      1.200270      0.681334     2.686122
H      3.562830      2.369544     1.761367
C      3.406432      1.719025     3.803316
C      3.643643      0.670032     4.591582
H      3.360846      2.722591     4.219337
H      3.795986      0.802536     5.658892
C      3.704802     -0.694736     4.044594
C      3.661375     -0.932708     2.732139
H      3.805757     -1.520394     4.743933
H      3.727642     -1.953960     2.363952
C      3.572137      0.167741     1.713343
C      2.261534      0.220816     0.876546
H      4.488912      0.184865     1.113358
H      2.486928      0.741694    -0.063479
C      0.759936      2.262525     1.275571
H      0.161491      2.747857     2.052880
H      1.346903      3.049159     0.783421
C     -0.142107      1.621297     0.237615
C     -1.520154      1.826924     0.255539
H      0.335330      1.469883    -0.726113
H     -1.950196      2.332483     1.117859
C     -2.389016      1.244760    -0.652770
C     -1.933546      0.416804    -1.682169
H     -3.455443      1.314505    -0.460684
H     -0.981250      0.673269    -2.138897
C     -2.852153     -0.297744    -2.591165
C     -4.105520     -0.752514    -2.170337
C     -2.464376     -0.557436    -3.908050
C     -4.957311     -1.406260    -3.049174
H     -4.423281     -0.593044    -1.144506
C     -3.315254     -1.209637    -4.788974
H     -1.480473     -0.244628    -4.246167
C     -4.568469     -1.632315    -4.364768
H     -5.928866     -1.746169    -2.704553
H     -2.998018     -1.388623    -5.811544
H     -5.235766     -2.141616    -5.052645
C      1.355694     -0.970394     0.602050
H      1.701735     -1.546678    -0.258171
H      1.397292     -1.653622     1.458444
C     -0.120244     -0.576935     0.483248
C     -0.991173     -1.130545    -0.472418
H     -0.583733     -0.426672     1.452280
H     -1.971855     -1.434783    -0.126770
C     -0.518158     -1.986165    -1.595103
O     -1.018454     -3.040553    -1.867395
O      0.512829     -1.511626    -2.352210
H      0.800057     -0.654518    -2.018149
