49
 -1042.02732588 -1041.66034300  0.00 0.00
C     -1.177213     -1.451399    -2.263466
C     -0.866767     -2.044877    -3.666628
H     -2.056033     -0.804224    -2.366552
H     -1.741345     -2.141769    -4.319620
C     -0.083437     -3.326412    -3.682215
C      1.146386     -3.409690    -4.193670
H     -0.566822     -4.216348    -3.285567
H      1.663364     -4.365357    -4.214805
C      1.835099     -2.239299    -4.761291
C      1.315115     -1.015930    -4.656717
H      2.783570     -2.396944    -5.266725
H      1.834870     -0.157851    -5.076055
C      0.030823     -0.791830    -3.920972
C      0.091093     -0.608582    -2.379520
H     -0.550501      0.015406    -4.377501
H      0.931453     -1.208921    -2.016755
C     -1.262607     -2.235931    -0.959202
H     -2.262417     -2.653871    -0.807078
H     -0.559575     -3.074392    -1.005672
C     -0.882044     -1.341426     0.215181
C      0.407722     -1.392877     0.745571
H     -1.699489     -1.051745     0.865058
H      1.151041     -1.998494     0.230952
C      0.842334     -0.572640     1.776516
C     -0.024476      0.319901     2.399692
H      1.904650     -0.538711     1.997138
H     -1.066306      0.024691     2.483221
C      0.406589      1.275723     3.438373
C     -0.493214      1.664240     4.434447
C      1.692549      1.823774     3.457981
C     -0.111851      2.541503     5.440059
H     -1.504289      1.266315     4.420197
C      2.075663      2.700581     4.463016
H      2.402890      1.562682     2.679564
C      1.177142      3.059568     5.461554
H     -0.823701      2.820452     6.210827
H      3.080292      3.112037     4.464903
H      1.478463      3.744547     6.247722
C      0.055629      0.730798    -1.652442
H      1.060665      1.041511    -1.350896
H     -0.327962      1.508742    -2.325968
C     -0.868606      0.722822    -0.446588
C     -0.585553      1.541106     0.648877
H     -1.926086      0.613107    -0.667697
H      0.345750      2.094170     0.674987
C     -1.734456      2.152949     1.333340
O     -2.820689      1.633135     1.475833
O     -1.460119      3.384669     1.819437
H     -2.257596      3.685091     2.279158
49
 -1042.02459839 -1041.65777400  1.71 1.61
C      0.826290      1.172432    -2.523121
C      2.062411      1.668246    -3.325417
H      0.087434      1.982357    -2.524000
H      1.831778      2.412190    -4.096179
C      2.943966      0.599494    -3.905854
C      4.204814      0.415309    -3.509165
H      2.530428     -0.016734    -4.700965
H      4.817536     -0.348463    -3.980602
C      4.817050      1.236702    -2.452363
C      4.091036      2.103886    -1.746044
H      5.879035      1.115918    -2.258665
H      4.552907      2.702614    -0.964706
C      2.618811      2.237777    -1.981409
C      1.666582      1.251786    -1.250192
H      2.286515      3.269656    -1.830446
H      2.205827      0.305528    -1.141725
C      0.123548     -0.169028    -2.700848
H     -0.630768     -0.123903    -3.492398
H      0.865207     -0.918801    -2.996324
C     -0.514904     -0.602444    -1.386531
C      0.138333     -1.514649    -0.557093
H     -1.597392     -0.557376    -1.355079
H      1.149746     -1.816603    -0.821822
C     -0.349008     -1.910417     0.678700
C     -1.581254     -1.465393     1.152668
H      0.312884     -2.462131     1.338978
H     -2.365213     -1.303485     0.419201
C     -2.082885     -1.782028     2.504049
C     -1.222454     -1.956205     3.592487
C     -3.456917     -1.900518     2.724809
C     -1.719387     -2.276700     4.847700
H     -0.151446     -1.839894     3.458561
C     -3.956655     -2.219921     3.979099
H     -4.143740     -1.738373     1.898619
C     -3.088576     -2.415589     5.045749
H     -1.034992     -2.413025     5.679288
H     -5.028060     -2.317834     4.123509
H     -3.476536     -2.667651     6.027591
C      0.896816      1.561012     0.029024
H      1.395967      1.130146     0.902163
H      0.860396      2.647057     0.188423
C     -0.548207      1.093726    -0.023937
C     -1.189404      0.701815     1.152927
H     -1.170886      1.610232    -0.747111
H     -0.615712      0.638463     2.069339
C     -2.596458      1.080731     1.364826
O     -3.089329      1.382830     2.422614
O     -3.333447      1.059729     0.214914
H     -4.221688      1.357531     0.456758
49
 -1042.02246306 -1041.65550500  3.05 3.04
C     -1.309718      1.317610    -2.340964
C     -1.460683      2.698369    -3.038988
H     -2.316284      0.912436    -2.183040
H     -2.367682      2.800851    -3.645299
C     -0.273641      3.173328    -3.827319
C      0.428844      4.255124    -3.484956
H     -0.011757      2.619022    -4.725773
H      1.259949      4.582589    -4.103886
C      0.102577      5.050142    -2.289987
C     -0.820762      4.639515    -1.420059
H      0.637921      5.981913    -2.131423
H     -1.050006      5.232738    -0.538051
C     -1.526823      3.333898    -1.613679
C     -0.843098      2.043863    -1.081728
H     -2.561541      3.388605    -1.261073
H      0.238322      2.196599    -1.166456
C     -0.359829      0.205922    -2.764213
H     -0.792040     -0.417152    -3.553513
H      0.551979      0.659495    -3.167082
C      0.008037     -0.656586    -1.562002
C      1.247543     -0.509980    -0.931529
H     -0.448998     -1.639462    -1.553706
H      1.878176      0.326615    -1.225686
C      1.633071     -1.256696     0.168037
C      0.801411     -2.244213     0.692060
H      2.517707     -0.947749     0.713768
H      0.157505     -2.772453    -0.004752
C      1.120471     -3.045917     1.891493
C      2.022159     -2.617028     2.872089
C      0.492068     -4.280496     2.070814
C      2.303543     -3.413173     3.972376
H      2.502553     -1.648928     2.782364
C      0.773871     -5.079436     3.170866
H     -0.223754     -4.622864     1.327990
C      1.685907     -4.649536     4.125688
H      3.009063     -3.064568     4.720297
H      0.279904     -6.039679     3.281446
H      1.911215     -5.270149     4.987183
C     -1.161388      1.364263     0.243128
H     -0.430365      1.631230     1.005450
H     -2.144324      1.697511     0.604747
C     -1.260850     -0.149187     0.115382
C     -0.971821     -1.022821     1.176182
H     -2.104826     -0.476779    -0.486743
H     -1.595086     -1.906824     1.267505
C     -0.437967     -0.543056     2.465419
O      0.365236      0.344326     2.644948
O     -0.947603     -1.253459     3.501577
H     -0.508186     -0.927777     4.301101
49
 -1042.01779761 -1041.65080100  5.98 5.99
C     -0.748133      1.246353    -2.590370
C     -0.961154      2.639540    -3.247485
H     -1.634595      0.636874    -2.803060
H     -1.620663      2.629325    -4.122541
C      0.284222      3.416325    -3.566563
C      0.584979      4.569179    -2.965301
H      0.937229      3.023263    -4.342509
H      1.480041      5.114927    -3.251806
C     -0.275926      5.152841    -1.924017
C     -1.320260      4.481684    -1.437229
H     -0.036386      6.146988    -1.557655
H     -1.946876      4.921006    -0.664737
C     -1.624977      3.094215    -1.908890
C     -0.892314      1.908638    -1.222161
H     -2.704216      2.912935    -1.929929
H      0.096506      2.271379    -0.920954
C      0.510604      0.397405    -2.704589
H      0.508920     -0.206230    -3.617715
H      1.377721      1.064511    -2.754257
C      0.651537     -0.503735    -1.484172
C      1.564321     -0.197395    -0.470918
H      0.432956     -1.549804    -1.667066
H      2.070057      0.765512    -0.507366
C      1.722879     -0.970286     0.665884
C      0.986943     -2.139917     0.850442
H      2.311228     -0.564615     1.481639
H      0.730685     -2.704654    -0.040955
C      1.058062     -2.988608     2.057248
C      1.522384     -2.519582     3.291163
C      0.631951     -4.316624     1.979910
C      1.588392     -3.360167     4.392122
H      1.838270     -1.487322     3.395020
C      0.696626     -5.160434     3.080526
H      0.251997     -4.696304     1.035087
C      1.180127     -4.685484     4.292640
H      1.959076     -2.977369     5.337968
H      0.368857     -6.191303     2.990060
H      1.234788     -5.340997     5.155981
C     -1.478663      1.044024    -0.113510
H     -1.134876      1.387249     0.860294
H     -2.574303      1.129233    -0.118473
C     -1.179365     -0.436318    -0.308645
C     -1.061296     -1.355293     0.745946
H     -1.678794     -0.855078    -1.178665
H     -1.465983     -2.346068     0.563327
C     -1.193451     -1.007808     2.176697
O     -1.868790     -1.644975     2.948051
O     -0.487598      0.076501     2.590399
H     -0.692735      0.176465     3.531129
49
 -1042.01498041 -1041.64832200  7.75 7.54
C      2.389384      1.063493     1.413120
C      2.831570      1.815703     2.699637
H      2.827727      1.585179     0.553909
H      3.784892      2.347797     2.606127
C      2.827365      1.012008     3.968566
C      2.006383      1.281171     4.985640
H      3.549915      0.203557     4.054530
H      2.061190      0.694838     5.899011
C      1.024630      2.376221     4.925972
C      0.816654      3.054634     3.797083
H      0.468241      2.616467     5.827435
H      0.085201      3.858519     3.763462
C      1.550077      2.695047     2.542738
C      0.967087      1.564492     1.650465
H      1.761030      3.583992     1.940035
H      0.470044      0.852672     2.318595
C      2.449382     -0.441473     1.197650
H      3.438717     -0.764269     0.858439
H      2.251945     -0.939625     2.152675
C      1.388982     -0.871020     0.188804
C      0.213194     -1.497551     0.615841
H      1.780953     -1.147306    -0.783345
H      0.003379     -1.524140     1.683165
C     -0.781167     -1.916627    -0.251084
C     -0.638035     -1.769287    -1.627753
H     -1.740203     -2.202751     0.165752
H      0.368328     -1.824900    -2.031974
C     -1.671716     -2.133702    -2.617788
C     -3.029498     -2.235465    -2.294621
C     -1.289371     -2.377188    -3.940378
C     -3.958826     -2.606115    -3.254151
H     -3.366791     -2.008305    -1.289668
C     -2.219552     -2.748736    -4.902223
H     -0.240841     -2.289020    -4.213796
C     -3.559675     -2.870125    -4.560078
H     -5.007119     -2.684589    -2.983204
H     -1.896078     -2.944630    -5.919713
H     -4.291780     -3.161870    -5.306353
C      0.116903      1.778099     0.406624
H     -0.942283      1.660252     0.631211
H      0.259765      2.800549     0.030055
C      0.516314      0.859442    -0.740728
C     -0.397565      0.435094    -1.721688
H      1.498620      1.084930    -1.149291
H     -0.006173      0.363017    -2.734711
C     -1.850263      0.714832    -1.619346
O     -2.502004      0.698490    -0.607318
O     -2.471254      0.991604    -2.796472
H     -1.847685      0.966589    -3.530855
49
 -1042.01402937 -1041.64631400  8.34 8.80
C     -0.630342      0.810247     2.759065
C     -1.483059      1.838365     3.556999
H      0.385859      0.815058     3.172864
H     -1.133053      2.015227     4.580145
C     -2.965542      1.596633     3.568900
C     -3.834164      2.431261     2.994629
H     -3.327102      0.717831     4.097983
H     -4.900940      2.233521     3.056976
C     -3.396869      3.644095     2.284935
C     -2.103969      3.887259     2.067882
H     -4.156976      4.338351     1.938313
H     -1.792631      4.784782     1.538839
C     -1.056921      2.911696     2.506271
C     -0.699853      1.740352     1.549547
H     -0.146955      3.429006     2.826308
H     -1.601461      1.491350     0.978046
C     -1.060259     -0.613659     2.438190
H     -0.848618     -1.295606     3.268365
H     -2.143334     -0.621183     2.277037
C     -0.371427     -1.105238     1.173796
C     -1.093120     -1.267879    -0.011543
H      0.463544     -1.775009     1.346343
H     -2.127252     -0.928482    -0.036936
C     -0.519450     -1.709632    -1.194841
C      0.845152     -2.011066    -1.267215
H     -1.117518     -1.703718    -2.101519
H      1.296492     -2.435057    -0.375722
C      1.533904     -2.425962    -2.506261
C      2.694910     -3.197359    -2.410317
C      1.086004     -2.063219    -3.780728
C      3.368815     -3.625834    -3.545766
H      3.067904     -3.475243    -1.427943
C      1.758823     -2.489544    -4.916004
H      0.211957     -1.431409    -3.893696
C      2.899135     -3.276691    -4.805350
H      4.262212     -4.234274    -3.446608
H      1.393486     -2.200453    -5.896450
H      3.421926     -3.609648    -5.696315
C      0.516573      1.727036     0.637604
H      0.278504      2.151637    -0.338149
H      1.296963      2.369388     1.067272
C      1.160334      0.346648     0.522380
C      1.749645     -0.136015    -0.658755
H      1.716901      0.079378     1.416621
H      2.710936     -0.629931    -0.558030
C      1.643507      0.595655    -1.955157
O      2.606498      0.894034    -2.605175
O      0.398905      0.918881    -2.384066
H     -0.258072      0.494421    -1.812760
