49
 -1042.02474194 -1041.65762100  0.00 0.00
C     -0.210487     -2.553449     1.319615
C      0.210572     -3.475454     2.496603
H     -1.290116     -2.379115     1.401646
H      1.162905     -3.965449     2.270052
C     -0.791944     -4.455104     3.019772
C     -1.682806     -4.092982     3.943709
H     -0.805189     -5.460168     2.605282
H     -2.429538     -4.797485     4.298906
C     -1.683278     -2.733796     4.507842
C     -0.722789     -1.851639     4.225691
H     -2.489570     -2.462461     5.184130
H     -0.747216     -0.862275     4.676873
C      0.443292     -2.180288     3.338237
C      0.529287     -1.400729     1.995507
H      1.365309     -2.159918     3.930167
H      1.577134     -1.425705     1.671566
C      0.184737     -2.766648    -0.134643
H     -0.554382     -3.378156    -0.661285
H      1.140638     -3.304453    -0.180996
C      0.358370     -1.428565    -0.832341
C     -0.202972     -1.203013    -2.086548
H      1.282118     -0.912004    -0.588183
H     -0.884791     -1.952217    -2.484673
C     -0.096616      0.003267    -2.761107
C      0.597402      1.085460    -2.222536
H     -0.696640      0.145769    -3.654493
H      1.461496      0.882140    -1.596760
C      0.643703      2.406725    -2.883563
C     -0.413442      2.884169    -3.664037
C      1.763427      3.225926    -2.715469
C     -0.335173      4.121131    -4.287602
H     -1.310736      2.285367    -3.785628
C      1.842622      4.464179    -3.337768
H      2.581584      2.884698    -2.088188
C      0.795755      4.914874    -4.131930
H     -1.164617      4.472340    -4.893566
H      2.726971      5.079177    -3.202608
H      0.856870      5.882043    -4.620679
C     -0.042787     -0.014630     1.733114
H      0.709370      0.752561     1.913426
H     -0.879795      0.175129     2.417163
C     -0.629869      0.126979     0.330445
C     -0.575116      1.333785    -0.385938
H     -1.561840     -0.413826     0.197994
H     -1.449093      1.615065    -0.961268
C      0.232814      2.472201     0.085819
O      1.344302      2.415542     0.566246
O     -0.391826      3.655277    -0.118054
H      0.231952      4.345725     0.150056
49
 -1042.02032772 -1041.65330900  2.77 2.71
C      2.764300      0.026440    -0.708697
C      4.026343     -0.783957    -1.113195
H      2.527723      0.711356    -1.531996
H      4.509358     -1.198568    -0.222563
C      5.024749     -0.131628    -2.016657
C      4.877396     -0.173618    -3.341451
H      5.855230      0.410664    -1.571290
H      5.587037      0.327683    -3.993531
C      3.754091     -0.896304    -3.958940
C      2.915534     -1.645188    -3.240282
H      3.627559     -0.818366    -5.035514
H      2.107940     -2.180042    -3.735089
C      3.064911     -1.832672    -1.757686
C      1.931619     -1.244330    -0.870299
H      3.301301     -2.882025    -1.547994
H      1.942140     -1.791145     0.080720
C      2.577399      0.723257     0.632295
H      2.932414      1.757682     0.593003
H      3.170064      0.208134     1.399480
C      1.118446      0.679944     1.050155
C      0.477402      1.822310     1.524411
H      0.794191     -0.281577     1.436749
H      1.003856      2.772217     1.452678
C     -0.858154      1.846120     1.891605
C     -1.661981      0.707688     1.817524
H     -1.318205      2.809118     2.091025
H     -1.199539     -0.255482     2.008153
C     -3.108014      0.738969     2.117098
C     -3.724551     -0.378920     2.685338
C     -3.900578      1.854416     1.830713
C     -5.077673     -0.371284     2.994410
H     -3.129337     -1.262737     2.896442
C     -5.253247      1.864626     2.139390
H     -3.457451      2.726134     1.359297
C     -5.847614      0.753534     2.727409
H     -5.531684     -1.246760     3.448210
H     -5.850395      2.742555     1.913155
H     -6.905607      0.762762     2.969453
C      0.489653     -1.024679    -1.307329
H     -0.115503     -1.903578    -1.090171
H      0.456773     -0.868659    -2.393059
C     -0.121901      0.237472    -0.701963
C     -1.471683      0.335807    -0.330079
H      0.270377      1.146955    -1.145977
H     -1.974514      1.269554    -0.551337
C     -2.418182     -0.799275    -0.375212
O     -3.515748     -0.739855    -0.871280
O     -1.976348     -1.939172     0.226823
H     -2.689902     -2.585581     0.126052
49
 -1042.01770789 -1041.65124700  4.41 4.00
C      0.740972      2.752501     0.370036
C      1.564656      3.987370    -0.087334
H     -0.322047      3.004784     0.273360
H      2.580075      3.934585     0.318183
C      0.970818      5.345946     0.113068
C      0.143358      5.869774    -0.792048
H      1.197543      5.884709     1.029824
H     -0.310734      6.843105    -0.629188
C     -0.180238      5.149028    -2.033659
C      0.433918      4.013851    -2.371946
H     -0.933774      5.576350    -2.689908
H      0.180836      3.519394    -3.307092
C      1.516886      3.398157    -1.533336
C      1.191755      2.019812    -0.891430
H      2.462411      3.424970    -2.086605
H      2.147086      1.523030    -0.681521
C      0.987417      1.969880     1.650942
H      0.401235      2.373951     2.482001
H      2.045164      2.049011     1.933379
C      0.662441      0.500046     1.440019
C     -0.107691     -0.190241     2.374642
H      1.424447     -0.054236     0.899972
H     -0.592935      0.384294     3.161505
C     -0.448847     -1.527055     2.242543
C     -0.022036     -2.290088     1.158798
H     -1.187180     -1.936715     2.924856
H      0.944100     -2.066642     0.716623
C     -0.468239     -3.682080     0.942534
C      0.367486     -4.581078     0.274464
C     -1.722659     -4.134075     1.365491
C     -0.017473     -5.898654     0.073483
H      1.328629     -4.237429    -0.095087
C     -2.108460     -5.452217     1.165648
H     -2.407099     -3.451285     1.859730
C     -1.254793     -6.342199     0.524109
H      0.652384     -6.583076    -0.437619
H     -3.083637     -5.786099     1.506344
H     -1.555629     -7.373302     0.368357
C      0.205145      0.996941    -1.433644
H      0.709477      0.285838    -2.086412
H     -0.565317      1.505325    -2.026923
C     -0.558979      0.264693    -0.330665
C     -0.922340     -1.087601    -0.456395
H     -1.323363      0.876407     0.139264
H     -1.909624     -1.363070    -0.098205
C     -0.352884     -1.941107    -1.524625
O      0.801430     -1.927722    -1.873390
O     -1.208164     -2.819032    -2.103761
H     -2.095526     -2.728754    -1.738382
