49
 -1042.03281675 -1041.66700700  0.00 0.00
C     -0.542256     -2.399096    -1.772754
C      0.910767     -2.953396    -1.716484
H     -1.135714     -3.132550    -2.328550
H      1.616903     -2.145149    -1.502245
C      1.388528     -3.791141    -2.860862
C      1.127884     -5.098433    -2.902349
H      1.922456     -3.309110    -3.676360
H      1.447012     -5.700906    -3.747995
C      0.399386     -5.760489    -1.808874
C      0.104730     -5.124552    -0.673261
H      0.111485     -6.799860    -1.941347
H     -0.431179     -5.644318     0.118368
C      0.505752     -3.701103    -0.417045
C     -0.679175     -2.705396    -0.261772
H      1.235352     -3.665521     0.400512
H     -1.635430     -3.146897     0.036305
C     -0.839555     -1.013719    -2.334414
H     -0.335723     -0.925017    -3.307160
H     -1.913491     -0.942733    -2.542948
C     -0.445001      0.167362    -1.477793
C     -1.046099      1.401669    -1.707813
H      0.571011      0.156425    -1.093851
H     -1.879043      1.440824    -2.408079
C     -0.805930      2.526306    -0.926098
C      0.078425      2.498266     0.140302
H     -1.447722      3.390353    -1.066084
H      0.909394      1.800817     0.108520
C      0.273604      3.623430     1.071655
C      1.483421      3.736608     1.763321
C     -0.716603      4.583037     1.308902
C      1.711077      4.790085     2.637075
H      2.253497      2.986218     1.610426
C     -0.488973      5.637403     2.180743
H     -1.679396      4.503527     0.814048
C      0.727523      5.749180     2.845075
H      2.661520      4.863572     3.156396
H     -1.267970      6.374421     2.349308
H      0.904215      6.575089     3.526654
C     -0.309018     -1.549853     0.664097
H     -0.431090     -1.884998     1.700589
H      0.753658     -1.312604     0.568489
C     -1.132393     -0.294057     0.457711
C     -1.001554      0.810926     1.302172
H     -2.138139     -0.457934     0.078042
H     -1.858940      1.453695     1.456877
C      0.012459      0.854445     2.363131
O      1.123713      0.369872     2.323217
O     -0.411449      1.560871     3.440457
H      0.338075      1.604432     4.051750
49
 -1042.03182983 -1041.66651600  0.62 0.31
C      0.403039     -1.345890    -2.477514
C      1.031638     -2.574680    -3.190098
H     -0.423575     -0.871560    -3.015920
H      2.037180     -2.396466    -3.590196
C      0.163795     -3.182655    -4.253209
C     -0.340344     -4.413951    -4.152108
H     -0.039374     -2.580363    -5.136135
H     -0.945006     -4.822720    -4.957115
C     -0.092708     -5.258941    -2.973761
C      0.533151     -4.776838    -1.899538
H     -0.438995     -6.288243    -2.997231
H      0.701559     -5.408035    -1.030137
C      0.979793     -3.349643    -1.844835
C     -0.019420     -2.280060    -1.317150
H      1.929386     -3.266757    -1.306885
H     -1.043495     -2.630938    -1.479229
C      1.426086     -0.296814    -2.043181
H      2.327626     -0.807166    -1.685691
H      1.729942      0.285805    -2.920512
C      0.951912      0.646021    -0.949510
C      0.265753      1.825077    -1.236590
H      1.569990      0.629439    -0.059330
H     -0.094221      1.984993    -2.251727
C     -0.159226      2.697953    -0.238681
C      0.178705      2.490805     1.089723
H     -0.876906      3.469181    -0.499737
H      1.123207      2.001927     1.306204
C     -0.358172      3.278680     2.210762
C      0.371913      3.361172     3.400470
C     -1.587635      3.942399     2.142154
C     -0.088913      4.110808     4.472532
H      1.317377      2.831179     3.477617
C     -2.049797      4.692222     3.213798
H     -2.193186      3.870076     1.244073
C     -1.300744      4.784994     4.381701
H      0.500196      4.169871     5.382472
H     -3.003966      5.204745     3.140384
H     -1.663586      5.373413     5.218346
C      0.128894     -1.715320     0.088877
H     -0.360364     -2.377764     0.812235
H      1.177292     -1.658721     0.391891
C     -0.526758     -0.343486     0.147706
C     -0.744937      0.361916     1.331808
H     -1.328317     -0.229675    -0.579784
H     -1.688151      0.869646     1.482619
C      0.032231      0.042611     2.530175
O      1.196600     -0.304698     2.536155
O     -0.661832      0.219639     3.679181
H     -0.047638      0.036811     4.404926
49
 -1042.02815131 -1041.66261000  2.93 2.76
C     -0.187108      3.276205     0.015008
C     -1.417214      2.968094     0.922817
H      0.032513      4.345332    -0.059289
H     -2.255257      2.513201     0.381470
C     -1.912995      4.143916     1.712355
C     -1.805435      4.219734     3.039691
H     -2.377878      4.956617     1.157685
H     -2.192901      5.086544     3.568247
C     -1.180409      3.147263     3.829252
C     -0.608769      2.099963     3.235528
H     -1.193474      3.231456     4.912097
H     -0.142979      1.313325     3.824852
C     -0.558189      1.972752     1.744577
C      0.711930      2.520897     1.030103
H     -0.732789      0.931074     1.474332
H      1.198980      3.245511     1.689144
C     -0.245095      2.681465    -1.388558
H     -1.122928      3.085285    -1.909536
H      0.628348      3.010853    -1.964018
C     -0.309726      1.173180    -1.391846
C     -0.351644      0.448404    -2.579780
H     -0.802106      0.731812    -0.533378
H     -0.183590      0.975504    -3.517512
C     -0.356650     -0.943945    -2.601683
C     -0.376022     -1.689904    -1.435457
H     -0.191151     -1.441804    -3.552066
H     -0.828911     -1.259645    -0.548643
C     -0.239013     -3.153897    -1.383745
C      0.370129     -3.892769    -2.404151
C     -0.720786     -3.842764    -0.265922
C      0.463051     -5.274029    -2.320896
H      0.782406     -3.385882    -3.271005
C     -0.627246     -5.223942    -0.181653
H     -1.178435     -3.282114     0.544484
C     -0.039033     -5.947151    -1.212372
H      0.935232     -5.830626    -3.124461
H     -1.016475     -5.738367     0.691457
H      0.034254     -7.028099    -1.149954
C      1.782395      1.531497     0.563398
H      2.684535      2.102135     0.312451
H      2.040171      0.918687     1.429632
C      1.553897      0.622387    -0.651569
C      1.617988     -0.770719    -0.551220
H      2.034307      1.005238    -1.546660
H      2.124558     -1.334078    -1.324104
C      1.431246     -1.463046     0.724048
O      0.698629     -1.105107     1.625293
O      2.137992     -2.614758     0.802727
H      1.891648     -3.035685     1.638831
49
 -1042.02766682 -1041.66246000  3.23 2.85
C      2.632214     -0.158595    -0.986355
C      3.534469     -0.397130    -2.228216
H      3.101563      0.408293    -0.176127
H      3.864629     -1.435835    -2.351079
C      4.715800      0.524515    -2.318755
C      4.853607      1.422467    -3.296130
H      5.481389      0.430598    -1.551526
H      5.737108      2.053881    -3.335021
C      3.840017      1.583544    -4.349804
C      2.677828      0.932121    -4.293281
H      4.059398      2.253582    -5.176152
H      1.931817      1.066555    -5.073029
C      2.353089      0.036438    -3.139278
C      1.672869      0.658909    -1.886458
H      1.779935     -0.832051    -3.479139
H      1.926530      1.722084    -1.827823
C      1.988768     -1.433052    -0.438046
H      1.701900     -2.075144    -1.278771
H      2.741734     -1.990199     0.131437
C      0.762029     -1.208693     0.429641
C      0.853188     -0.991827     1.802675
H     -0.133440     -1.695653     0.060820
H      1.834458     -0.813059     2.239512
C     -0.269729     -0.780616     2.596637
C     -1.555010     -0.873732     2.080721
H     -0.121650     -0.396563     3.600973
H     -1.731110     -1.576516     1.273088
C     -2.767097     -0.504240     2.830395
C     -2.746602      0.425224     3.876113
C     -3.993547     -1.077724     2.482853
C     -3.905265      0.737283     4.571945
H     -1.816636      0.914593     4.148036
C     -5.153099     -0.766707     3.176938
H     -4.034616     -1.777639     1.652896
C     -5.112842      0.138579     4.230149
H     -3.868288      1.457060     5.383753
H     -6.091817     -1.233218     2.895102
H     -6.018188      0.382750     4.776601
C      0.183693      0.456599    -1.638067
H     -0.396813      1.197286    -2.200261
H     -0.141411     -0.523569    -1.995277
C     -0.094080      0.622933    -0.151113
C     -1.361721      0.727893     0.421838
H      0.649193      1.249681     0.338125
H     -1.517816      1.456165     1.206217
C     -2.595828      0.366791    -0.287334
O     -3.646190      0.955470    -0.205944
O     -2.473885     -0.758509    -1.055205
H     -3.330542     -0.881025    -1.488280
49
 -1042.02861785 -1041.66234100  2.63 2.93
C     -1.211652      2.671675    -0.642231
C     -2.546828      2.413352     0.114068
H     -1.242756      3.711458    -0.984280
H     -2.747287      1.338984     0.173908
C     -3.764453      3.159329    -0.333953
C     -4.009642      4.392116     0.112071
H     -4.428606      2.691943    -1.057073
H     -4.876415      4.945906    -0.237148
C     -3.114403      5.037705     1.084842
C     -2.116388      4.373867     1.671554
H     -3.292392      6.081218     1.330047
H     -1.474796      4.879025     2.390694
C     -1.842132      2.923269     1.400811
C     -0.474542      2.632423     0.719449
H     -2.027405      2.337634     2.309140
H      0.294410      3.400243     0.851189
C     -0.783520      1.793028    -1.813141
H     -1.634447      1.710705    -2.504034
H      0.007604      2.309344    -2.369351
C     -0.296579      0.403083    -1.478045
C      0.492328     -0.285421    -2.393381
H     -0.934308     -0.174637    -0.815277
H      0.834387      0.250020    -3.277693
C      1.066397     -1.523964    -2.127540
C      0.881003     -2.175496    -0.917565
H      1.805522     -1.902250    -2.826926
H     -0.039541     -1.999456    -0.371162
C      1.568106     -3.426533    -0.552843
C      0.958768     -4.310266     0.342303
C      2.828589     -3.763018    -1.057630
C      1.567215     -5.506569     0.694331
H     -0.012684     -4.057488     0.757580
C      3.438167     -4.958497    -0.707043
H      3.344113     -3.080815    -1.726247
C      2.808375     -5.838737     0.166365
H      1.068706     -6.183128     1.381434
H      4.415118     -5.203426    -1.112045
H      3.286250     -6.774371     0.438649
C      0.063519      1.261107     1.121902
H      0.544691      1.353203     2.102933
H     -0.768226      0.567209     1.270478
C      1.056911      0.676721     0.137936
C      1.766842     -0.498159     0.387560
H      1.596857      1.412187    -0.453581
H      2.735204     -0.614996    -0.082680
C      1.670890     -1.282161     1.631285
O      2.620501     -1.783135     2.183610
O      0.410547     -1.431083     2.128816
H      0.507985     -1.953145     2.937914
49
 -1042.02594419 -1041.66134200  4.31 3.55
C      1.459180      0.837295     2.279442
C      1.489463      1.037015     3.819274
H      2.441976      0.754412     1.804753
H      1.188711      2.039199     4.148034
C      2.791634      0.661846     4.464604
C      2.902362     -0.355093     5.321267
H      3.663063      1.263916     4.216213
H      3.860857     -0.576654     5.782700
C      1.749841     -1.195817     5.680088
C      0.576997     -1.058057     5.060884
H      1.879364     -1.939571     6.461092
H     -0.264939     -1.692702     5.327360
C      0.399963     -0.061349     3.958773
C      0.718720     -0.504358     2.501107
H     -0.600434      0.380613     4.001282
H      1.437441     -1.329540     2.519670
C      0.593739      1.855300     1.541075
H     -0.309427      2.047972     2.130709
H      1.131200      2.808779     1.482470
C      0.165387      1.430864     0.144301
C      0.986831      1.654172    -0.966350
H     -0.906543      1.470131    -0.011825
H      2.021452      1.947978    -0.796300
C      0.603987      1.312581    -2.259256
C     -0.668756      0.843395    -2.541340
H      1.368094      1.292873    -3.029613
H     -1.490953      1.174190    -1.915878
C     -1.079545      0.292326    -3.840487
C     -0.161927     -0.166853    -4.793946
C     -2.443318      0.206490    -4.142600
C     -0.594938     -0.656595    -6.016523
H      0.902052     -0.145095    -4.580594
C     -2.876419     -0.282522    -5.365288
H     -3.169169      0.525298    -3.400392
C     -1.953068     -0.711236    -6.311473
H      0.131426     -1.002498    -6.745385
H     -3.939216     -0.330067    -5.581246
H     -2.289105     -1.093559    -7.269906
C     -0.412570     -0.807605     1.529023
H     -0.746781     -1.843835     1.652301
H     -1.287401     -0.181250     1.717145
C      0.086517     -0.617505     0.101653
C     -0.651086     -1.010099    -1.020256
H      1.152863     -0.816938     0.006296
H     -0.140734     -1.515114    -1.831711
C     -2.115748     -1.084975    -0.954709
O     -2.795512     -0.357426    -0.267681
O     -2.727877     -1.991950    -1.759573
H     -2.077647     -2.508385    -2.249180
49
 -1042.02598008 -1041.66036800  4.29 4.17
C      2.980381      0.472923    -0.227119
C      3.354444     -0.968295    -0.679707
H      3.904088      1.060072    -0.257731
H      2.594503     -1.680651    -0.343867
C      4.730309     -1.467994    -0.368203
C      5.754874     -1.186512    -1.174200
H      4.887448     -2.035828     0.545755
H      6.759230     -1.522122    -0.932205
C      5.556289     -0.412127    -2.409393
C      4.338460     -0.092274    -2.851412
H      6.436041     -0.110793    -2.971489
H      4.225586      0.477579    -3.771485
C      3.085201     -0.509489    -2.138761
C      2.235357      0.662481    -1.569551
H      2.522760     -1.213098    -2.763707
H      2.382403      1.635022    -2.049827
C      2.289126      0.731585     1.106029
H      2.839372      0.189269     1.887552
H      2.388385      1.795745     1.349919
C      0.825770      0.361066     1.204710
C      0.053946      0.955556     2.202582
H      0.569443     -0.647850     0.894019
H      0.498413      1.770739     2.771453
C     -1.310467      0.735451     2.351265
C     -2.008494     -0.130050     1.526072
H     -1.857100      1.379166     3.033123
H     -1.481062     -0.964055     1.074865
C     -3.472938     -0.282191     1.552794
C     -4.046568     -1.468655     1.085138
C     -4.324938      0.728012     2.015395
C     -5.419996     -1.657089     1.114635
H     -3.402945     -2.248192     0.689533
C     -5.698742      0.539630     2.045080
H     -3.913447      1.674123     2.353090
C     -6.252320     -0.656154     1.601078
H     -5.843214     -2.590171     0.756173
H     -6.343624      1.332370     2.411338
H     -7.327281     -0.803316     1.625656
C      0.754630      0.297317    -1.531718
H      0.332656      0.452709    -2.531281
H      0.631976     -0.770634    -1.336931
C     -0.063144      1.092967    -0.532287
C     -1.454130      0.959719    -0.470913
H      0.302416      2.098041    -0.333441
H     -2.029926      1.817673    -0.139830
C     -2.171984     -0.068723    -1.247462
O     -1.750733     -1.170592    -1.500715
O     -3.420964      0.268691    -1.664594
H     -3.639491      1.168949    -1.399427
49
 -1042.02298343 -1041.65698600  6.17 6.29
C      1.046414      2.868631    -1.090439
C      1.951174      2.786404     0.176932
H      1.278764      3.731101    -1.721977
H      1.390083      2.870559     1.115137
C      3.092297      3.760376     0.191574
C      4.366313      3.382368     0.080986
H      2.844819      4.814513     0.299537
H      5.159481      4.124430     0.110863
C      4.742416      1.968706    -0.072640
C      3.816698      1.018069    -0.196751
H      5.798805      1.716261    -0.086782
H      4.112432     -0.021695    -0.319642
C      2.352973      1.337546    -0.205027
C      1.681169      1.543615    -1.595018
H      1.818013      0.584955     0.377583
H      2.461941      1.775544    -2.325177
C     -0.455058      2.840366    -0.822713
H     -0.716414      3.698454    -0.189551
H     -0.999367      2.981716    -1.764143
C     -0.921844      1.567504    -0.161477
C     -2.264467      1.347440     0.124794
H     -0.194149      1.082310     0.479388
H     -2.999271      2.056925    -0.252416
C     -2.728144      0.143823     0.648553
C     -1.869103     -0.897640     0.961199
H     -3.800026     -0.028838     0.659825
H     -0.852753     -0.660842     1.255804
C     -2.314028     -2.238122     1.374657
C     -3.557021     -2.764460     1.006223
C     -1.463429     -3.034472     2.147301
C     -3.945725     -4.027760     1.426378
H     -4.227055     -2.185304     0.378510
C     -1.850558     -4.298144     2.567874
H     -0.487688     -2.649005     2.429593
C     -3.097108     -4.799000     2.213348
H     -4.915786     -4.417181     1.133433
H     -1.177458     -4.893225     3.177059
H     -3.403639     -5.786791     2.542102
C      0.826121      0.413987    -2.181206
H      0.683120      0.622396    -3.248312
H      1.427307     -0.496961    -2.136700
C     -0.587538      0.129896    -1.661025
C     -0.985361     -1.124205    -1.191399
H     -1.346711      0.613960    -2.267143
H     -1.959497     -1.497093    -1.480440
C     -0.062079     -2.205222    -0.818671
O     -0.224076     -3.370086    -1.088194
O      1.015563     -1.794766    -0.085354
H      1.539448     -2.591043     0.083537
49
 -1042.02190679 -1041.65672000  6.85 6.46
C      2.795688      1.112408    -1.315080
C      1.981403      0.988672    -2.638950
H      3.784700      1.556770    -1.460468
H      1.771647     -0.048486    -2.926485
C      2.582288      1.717785    -3.804712
C      2.017811      2.796147    -4.350286
H      3.517095      1.331886    -4.206575
H      2.484376      3.281536    -5.203296
C      0.757444      3.355279    -3.837132
C      0.181550      2.860785    -2.741689
H      0.307714      4.186132    -4.373062
H     -0.747046      3.282492    -2.363683
C      0.794391      1.731268    -1.973816
C      1.729897      2.108455    -0.787322
H      0.002129      1.061603    -1.640198
H      2.086870      3.132105    -0.933019
C      2.942475     -0.176899    -0.514514
H      3.455051     -0.924308    -1.133726
H      3.593417     -0.000127     0.350169
C      1.623573     -0.741617    -0.039525
C      1.583532     -1.915680     0.715825
H      0.778499     -0.553118    -0.692022
H      2.520684     -2.317834     1.097161
C      0.396123     -2.454762     1.200904
C     -0.837276     -1.900605     0.906135
H      0.460470     -3.243865     1.943645
H     -0.956136     -1.338760    -0.013819
C     -2.102211     -2.324726     1.522863
C     -3.307317     -2.039345     0.871688
C     -2.156726     -2.994684     2.751645
C     -4.521252     -2.441218     1.406620
H     -3.285597     -1.491303    -0.065532
C     -3.371165     -3.395863     3.287180
H     -1.243064     -3.201776     3.300106
C     -4.558694     -3.127457     2.614816
H     -5.442971     -2.217811     0.878586
H     -3.393561     -3.918043     4.238648
H     -5.508009     -3.443680     3.034800
C      1.192931      2.008026     0.641967
H      1.892682      2.530676     1.304923
H      0.262369      2.578311     0.668196
C      0.969763      0.646614     1.319086
C     -0.292302      0.274823     1.799958
H      1.771689      0.396878     2.007678
H     -0.351367     -0.231782     2.756706
C     -1.530806      0.837963     1.249106
O     -1.661791      1.208345     0.105077
O     -2.599313      0.896870     2.083433
H     -2.371657      0.561921     2.957990
