49
 -1042.02768476 -1041.66153300  0.00 0.00
C      0.102645      2.478455     1.440605
C     -0.129552      3.988150     1.713143
H      1.039628      2.404394     0.872321
H     -0.862466      4.123443     2.514620
C      1.066378      4.866268     1.909366
C      1.727939      5.353727     0.858960
H      1.405144      5.075500     2.921063
H      2.615623      5.964183     0.997908
C      1.283060      5.075435    -0.516439
C      0.122726      4.468435    -0.773758
H      1.924500      5.393862    -1.333921
H     -0.179356      4.285242    -1.802551
C     -0.823721      4.044808     0.313097
C     -1.050310      2.514427     0.445227
H     -1.742400      4.639366     0.257415
H     -1.992385      2.378521     0.996341
C      0.038727      1.340491     2.435328
H      0.876976      1.380181     3.143321
H     -0.886666      1.386539     3.022413
C      0.110066      0.041255     1.652904
C     -0.301742     -1.167203     2.206309
H      0.920316      0.022989     0.928778
H     -0.861124     -1.141502     3.139974
C     -0.210604     -2.376593     1.529643
C      0.341308     -2.454483     0.255684
H     -0.714792     -3.241169     1.949796
H      1.129080     -1.754852    -0.005771
C      0.366739     -3.696098    -0.542046
C     -0.602156     -4.694347    -0.401771
C      1.378568     -3.885140    -1.487447
C     -0.537174     -5.858473    -1.154208
H     -1.418184     -4.562507     0.301958
C      1.444243     -5.048578    -2.241316
H      2.124461     -3.107982    -1.627985
C      0.489158     -6.043550    -2.073714
H     -1.295698     -6.624672    -1.027371
H      2.245524     -5.179215    -2.962022
H      0.539511     -6.954868    -2.661038
C     -0.972886      1.474990    -0.651285
H     -1.734113      1.653180    -1.423477
H     -0.000688      1.498406    -1.147377
C     -1.247580      0.098664    -0.056823
C     -1.075221     -1.082720    -0.788174
H     -2.115251      0.088677     0.599342
H     -1.836199     -1.849277    -0.712119
C     -0.309910     -1.079438    -2.043923
O      0.720488     -0.473250    -2.247880
O     -0.856397     -1.887883    -2.981613
H     -0.256233     -1.875793    -3.741487
49
 -1042.02336026 -1041.65724500  2.71 2.69
C      1.513002      1.106732    -2.136774
C      2.589415      1.157342    -3.253207
H      2.017220      1.398642    -1.205580
H      2.116398      1.173159    -4.240028
C      3.673531      2.183653    -3.147640
C      4.746096      1.959633    -2.387171
H      3.558317      3.126736    -3.676207
H      5.518564      2.716073    -2.282137
C      4.913736      0.688737    -1.663611
C      4.095742     -0.347746    -1.858311
H      5.742469      0.605155    -0.965495
H      4.253845     -1.275887    -1.313451
C      2.960475     -0.304868    -2.841109
C      1.538637     -0.414616    -2.227617
H      3.156805     -0.999759    -3.665236
H      0.865002     -0.729176    -3.037936
C      0.130145      1.721329    -2.158698
H      0.180477      2.817737    -2.126679
H     -0.404815      1.446439    -3.076038
C     -0.615613      1.219507    -0.936125
C     -2.002691      1.281135    -0.845451
H     -0.040748      1.312560    -0.018319
H     -2.567268      1.527881    -1.743012
C     -2.705496      0.845778     0.269414
C     -2.055456      0.336880     1.390705
H     -3.785217      0.761248     0.194871
H     -1.075513      0.732600     1.635751
C     -2.770184     -0.228279     2.551166
C     -2.191717     -0.153666     3.820899
C     -4.009571     -0.863650     2.427342
C     -2.842944     -0.661425     4.936216
H     -1.219662      0.318132     3.933829
C     -4.663150     -1.370840     3.541307
H     -4.470661     -0.965480     1.449881
C     -4.085379     -1.267908     4.801880
H     -2.379298     -0.580693     5.914439
H     -5.627257     -1.856156     3.425178
H     -4.597930     -1.664226     5.672638
C      1.137794     -1.131515    -0.955589
H      1.335727     -2.210159    -1.023879
H      1.711166     -0.752836    -0.107617
C     -0.361355     -0.952993    -0.745149
C     -1.041430     -1.375627     0.402859
H     -0.926443     -1.096791    -1.663339
H     -2.006097     -1.847933     0.266237
C     -0.354828     -1.876177     1.608908
O     -0.675304     -2.872892     2.207901
O      0.679391     -1.096755     2.034522
H      1.042076     -1.539032     2.815458
