49
 -1042.02312698 -1041.65604300  0.00 0.00
C     -1.674543     -1.397620    -1.888324
C     -2.688674     -2.548803    -2.135511
H     -2.192762     -0.452034    -2.085518
H     -2.157313     -3.489378    -2.311597
C     -3.765702     -2.335923    -3.151664
C     -4.904630     -1.725745    -2.821449
H     -3.588983     -2.656465    -4.175494
H     -5.672671     -1.545002    -3.568141
C     -5.154755     -1.278625    -1.441926
C     -4.326204     -1.580396    -0.440541
H     -6.053197     -0.698616    -1.248459
H     -4.554721     -1.247364     0.569259
C     -3.094666     -2.418335    -0.632998
C     -1.732359     -1.708775    -0.394438
H     -3.211407     -3.363000    -0.089900
H     -0.994259     -2.491432    -0.185456
C     -0.253368     -1.363905    -2.435593
H     -0.224780     -0.958337    -3.451696
H      0.127103     -2.391103    -2.485133
C      0.647346     -0.546166    -1.517295
C      1.523254     -1.177567    -0.628752
H      0.937555      0.420846    -1.912409
H      1.448817     -2.256617    -0.509977
C      2.349892     -0.486990     0.240783
C      2.389911      0.905730     0.242782
H      2.849557     -1.042171     1.027105
H      2.209495      1.411453    -0.700860
C      3.213795      1.702322     1.174118
C      3.619180      1.223238     2.425050
C      3.600101      2.994152     0.807355
C      4.408013      2.000611     3.259599
H      3.304504      0.239798     2.756621
C      4.394826      3.771416     1.639272
H      3.279768      3.390590    -0.152660
C      4.805165      3.275355     2.869650
H      4.714044      1.610082     4.225248
H      4.693384      4.766847     1.325548
H      5.425374      3.878920     3.524685
C     -1.479524     -0.535206     0.541723
H     -1.070376     -0.876581     1.491736
H     -2.421536     -0.015293     0.757783
C     -0.567271      0.516097    -0.074383
C      0.271913      1.336585     0.696583
H     -1.016479      1.037072    -0.916446
H      0.384380      2.365989     0.372829
C      0.430107      1.152954     2.149919
O      0.475667      0.106073     2.755786
O      0.561665      2.342971     2.786299
H      0.735361      2.138357     3.716886
49
 -1042.01826416 -1041.65119500  3.05 3.04
C      0.579320      1.349654    -2.453656
C      0.256407      1.488471    -3.967512
H      0.332441      2.302946    -1.971894
H      0.809043      0.738176    -4.541749
C      0.371327      2.842445    -4.593230
C     -0.644972      3.704783    -4.546914
H      1.313361      3.125241    -5.056696
H     -0.548008      4.698336    -4.975349
C     -1.923231      3.339565    -3.916113
C     -2.170570      2.100532    -3.487031
H     -2.682611      4.110792    -3.818209
H     -3.135118      1.864441    -3.043373
C     -1.182514      0.979186    -3.636827
C     -0.601042      0.389833    -2.321264
H     -1.588650      0.228951    -4.324763
H     -0.241636     -0.620147    -2.549144
C      1.878540      0.779071    -1.899297
H      2.655535      1.546911    -1.832077
H      2.243272      0.007690    -2.588063
C      1.641713      0.149758    -0.532324
C      1.555496     -1.238662    -0.389325
H      2.035386      0.719725     0.301890
H      1.529233     -1.850561    -1.288801
C      1.318952     -1.861328     0.823287
C      1.190842     -1.125498     2.000812
H      1.084190     -2.920388     0.818628
H      1.767082     -0.208086     2.072741
C      0.891911     -1.717793     3.319206
C      0.271910     -2.962923     3.472073
C      1.228507     -1.007615     4.474852
C      0.030590     -3.487455     4.732765
H     -0.025127     -3.531420     2.597586
C      0.991274     -1.531938     5.738184
H      1.695175     -0.030777     4.379082
C      0.392599     -2.777945     5.872474
H     -0.445861     -4.458294     4.827656
H      1.274679     -0.965265     6.619671
H      0.204578     -3.192658     6.857690
C     -1.294665      0.368809    -0.965623
H     -1.789334     -0.587238    -0.805205
H     -2.068385      1.146276    -0.929596
C     -0.343616      0.689641     0.179766
C     -0.494529      0.187526     1.481297
H      0.004817      1.719165     0.160441
H     -0.245279      0.869266     2.287765
C     -1.575574     -0.728273     1.905724
O     -2.225445     -0.560371     2.909087
O     -1.791350     -1.800810     1.101153
H     -2.530662     -2.281747     1.500201
49
 -1042.01564433 -1041.64877700  4.70 4.56
C      2.209996      1.781178    -0.443787
C      3.270423      2.746943     0.154069
H      2.746215      0.939804    -0.898065
H      2.841178      3.745215     0.285196
C      4.613059      2.815637    -0.502067
C      5.573912      1.947749    -0.182755
H      4.780887      3.565197    -1.271601
H      6.537929      1.980424    -0.682452
C      5.358916      0.922207     0.850531
C      4.257884      0.898500     1.603801
H      6.136935      0.178518     1.000993
H      4.143362      0.135441     2.370271
C      3.168864      1.925153     1.478536
C      1.790284      1.411613     0.976789
H      3.120642      2.515970     2.400225
H      1.037082      2.137252     1.304447
C      1.037788      2.214033    -1.313588
H      1.327254      2.297715    -2.365738
H      0.707851      3.207542    -0.987689
C     -0.121502      1.234241    -1.165669
C     -1.236077      1.561641    -0.386293
H     -0.278845      0.593318    -2.025972
H     -1.189287      2.457002     0.230070
C     -2.316553      0.712972    -0.214609
C     -2.373302     -0.516426    -0.864224
H     -3.040238      0.948360     0.557728
H     -1.884795     -0.593659    -1.830770
C     -3.463225     -1.496131    -0.688449
C     -4.265945     -1.538902     0.457187
C     -3.704578     -2.433424    -1.697802
C     -5.294574     -2.461661     0.565637
H     -4.073933     -0.858627     1.279112
C     -4.737047     -3.355859    -1.591557
H     -3.081336     -2.426269    -2.588525
C     -5.540033     -3.370121    -0.458845
H     -5.908778     -2.476787     1.460609
H     -4.914502     -4.063923    -2.395046
H     -6.348412     -4.088749    -0.369144
C      1.230703      0.008575     1.159385
H      0.551262     -0.032100     2.009528
H      2.045575     -0.700075     1.354023
C      0.534364     -0.510904    -0.091769
C     -0.527747     -1.430051    -0.034345
H      1.218261     -0.703664    -0.915100
H     -0.542696     -2.187944    -0.814340
C     -1.162326     -1.821531     1.245616
O     -1.383825     -1.087288     2.173433
O     -1.536684     -3.124661     1.334610
H     -1.314383     -3.603446     0.528406
49
 -1042.01453181 -1041.64675900  5.39 5.83
C      0.411959      2.590760     1.038741
C      0.381450      3.513819     2.289041
H      1.434833      2.590422     0.642791
H     -0.641588      3.851615     2.482581
C      1.347106      4.655019     2.347176
C      2.581396      4.483358     2.822069
H      1.034733      5.622182     1.960961
H      3.289086      5.307416     2.834642
C      3.021551      3.178916     3.341634
C      2.179337      2.153601     3.481508
H      4.063849      3.069749     3.629193
H      2.537734      1.210686     3.888373
C      0.718307      2.254242     3.148123
C      0.220266      1.385858     1.957949
H      0.129547      2.137553     4.064950
H     -0.855860      1.222355     2.091643
C     -0.610123      2.656775    -0.087663
H     -0.341608      3.419123    -0.826066
H     -1.578950      2.945074     0.337414
C     -0.751462      1.300770    -0.762690
C     -1.892764      0.520085    -0.561488
H     -0.251679      1.219916    -1.721464
H     -2.626412      0.853215     0.170562
C     -2.068297     -0.727614    -1.142151
C     -1.088551     -1.281634    -1.973769
H     -2.929057     -1.324581    -0.854386
H     -0.516021     -0.586241    -2.579352
C     -1.191158     -2.622597    -2.581784
C     -1.911247     -3.668931    -1.995905
C     -0.529715     -2.872033    -3.787646
C     -1.993165     -4.907158    -2.614936
H     -2.402207     -3.526062    -1.039598
C     -0.614136     -4.109628    -4.410439
H      0.049299     -2.077048    -4.250388
C     -1.351065     -5.132417    -3.827115
H     -2.559292     -5.705331    -2.145117
H     -0.103341     -4.275869    -5.353729
H     -1.419309     -6.102093    -4.309789
C      0.868781      0.095246     1.484260
H      0.450819     -0.767241     2.004433
H      1.937873      0.114183     1.729402
C      0.818601     -0.073186    -0.032721
C      0.639136     -1.315674    -0.663220
H      1.533144      0.569093    -0.540459
H      1.279145     -1.528804    -1.512864
C      0.322670     -2.553675     0.107378
O      0.982133     -3.552334     0.022149
O     -0.757113     -2.515575     0.926243
H     -1.248641     -1.695311     0.771526
