49
 -1042.03060963 -1041.66448100  0.00 0.00
C     -1.289425      2.851098    -0.961128
C     -0.565142      4.203835    -1.278894
H     -2.381958      2.919976    -0.964883
H     -1.250687      5.034030    -1.084471
C      0.111447      4.403427    -2.598953
C      1.403624      4.120527    -2.765466
H     -0.480806      4.770893    -3.433462
H      1.879888      4.260153    -3.731711
C      2.216492      3.589241    -1.659444
C      1.732663      3.483242    -0.421303
H      3.233371      3.274369    -1.877628
H      2.355980      3.081834     0.374588
C      0.358465      3.964812    -0.054135
C     -0.663610      2.908700     0.456877
H      0.466678      4.824182     0.618124
H     -1.359119      3.437810     1.116961
C     -0.851013      1.667649    -1.819569
H      0.188129      1.786500    -2.136591
H     -1.444884      1.665696    -2.742388
C     -0.999078      0.338789    -1.115228
C     -0.605893     -0.838163    -1.741173
H     -1.799325      0.284563    -0.380518
H     -0.095016     -0.764868    -2.699314
C     -0.586004     -2.072957    -1.100857
C     -0.936380     -2.208275     0.231358
H     -0.093772     -2.894799    -1.609612
H     -1.645556     -1.502219     0.651649
C     -0.802612     -3.451264     1.009181
C     -1.514446     -3.584888     2.204229
C      0.017299     -4.512587     0.608308
C     -1.441079     -4.747616     2.959332
H     -2.144520     -2.764693     2.538444
C      0.091925     -5.673945     1.361087
H      0.612351     -4.428399    -0.294905
C     -0.640021     -5.800593     2.537336
H     -2.012484     -4.831013     3.878446
H      0.730661     -6.487402     1.030942
H     -0.580459     -6.712520     3.122788
C     -0.222343      1.647526     1.196550
H     -1.091976      1.235597     1.723728
H      0.485375      1.946853     1.981470
C      0.426088      0.518737     0.413188
C      0.613044     -0.687353     1.080124
H      1.191007      0.781465    -0.308479
H      0.195423     -0.831559     2.070958
C      1.777816     -1.514055     0.737332
O      2.394352     -1.485116    -0.303952
O      2.128420     -2.348110     1.748761
H      2.887113     -2.859109     1.432296
49
 -1042.02788215 -1041.66180300  1.71 1.68
C     -1.636366      2.726875     0.595196
C     -1.110229      4.202692     0.617640
H     -2.673248      2.620129     0.929502
H     -1.731111      4.796331     1.295235
C     -0.903544      4.947675    -0.663973
C      0.277128      4.947828    -1.283229
H     -1.748095      5.480208    -1.094464
H      0.410789      5.483995    -2.218421
C      1.424622      4.205628    -0.736722
C      1.369978      3.605856     0.453099
H      2.329916      4.150812    -1.335253
H      2.233095      3.060705     0.828578
C      0.167604      3.707286     1.347089
C     -0.589881      2.392216     1.690669
H      0.449279      4.289151     2.232653
H     -1.057988      2.546099     2.668700
C     -1.452249      1.995390    -0.732091
H     -0.577526      2.378613    -1.263809
H     -2.312268      2.217719    -1.376484
C     -1.310385      0.500472    -0.564855
C     -1.105049     -0.323039    -1.665270
H     -1.818867      0.078531     0.299241
H     -0.958673      0.143503    -2.638006
C     -0.821606     -1.680492    -1.555883
C     -0.699909     -2.301016    -0.322905
H     -0.510760     -2.206922    -2.452476
H     -1.260141     -1.888617     0.510450
C     -0.281353     -3.697375    -0.118052
C     -0.564756     -4.315745     1.102580
C      0.399480     -4.439677    -1.089052
C     -0.213676     -5.637909     1.339045
H     -1.079567     -3.749888     1.874707
C      0.751203     -5.759348    -0.855760
H      0.673745     -3.980222    -2.032473
C      0.442467     -6.367619     0.356483
H     -0.455018     -6.098511     2.291813
H      1.276121     -6.318455    -1.624034
H      0.717952     -7.402241     0.534186
C      0.118685      1.040622     1.747382
H     -0.518334      0.338667     2.299753
H      1.025572      1.158554     2.355941
C      0.533017      0.372278     0.447681
C      0.971952     -0.945481     0.526941
H      1.004000      0.998929    -0.299655
H      0.895193     -1.480105     1.467753
C      2.036584     -1.460089    -0.345609
O      2.738604     -2.409299    -0.087267
O      2.199951     -0.755187    -1.499097
H      2.943665     -1.169528    -1.957482
49
 -1042.02551354 -1041.66024000  3.20 2.66
C     -2.275987     -0.455683     1.924586
C     -2.446461     -1.155903     3.303452
H     -3.201508     -0.561095     1.348492
H     -3.494032     -1.324237     3.576888
C     -1.742052     -0.540060     4.477997
C     -0.769118     -1.169196     5.139511
H     -2.078299      0.440606     4.806860
H     -0.314029     -0.706914     6.011207
C     -0.279539     -2.492704     4.722955
C     -0.713689     -3.069335     3.601773
H      0.461882     -2.984412     5.346176
H     -0.325569     -4.039313     3.299133
C     -1.725947     -2.404791     2.719683
C     -1.253199     -1.540377     1.502222
H     -2.453923     -3.145722     2.375854
H     -1.448569     -1.999865     0.528110
C     -1.770051      0.975408     1.796469
H     -1.041388      1.206068     2.580028
H     -2.593086      1.690246     1.913641
C     -1.140926      1.102340     0.428082
C     -0.671173      2.286897    -0.129563
H     -1.522082      0.363047    -0.270253
H     -0.581300      3.172483     0.496056
C     -0.091103      2.311177    -1.394963
C     -0.002175      1.177497    -2.186728
H      0.444394      3.206709    -1.690143
H     -0.741886      0.393617    -2.065751
C      0.709381      1.124944    -3.474520
C      1.704352      2.044489    -3.827135
C      0.397669      0.110133    -4.383522
C      2.338445      1.963438    -5.057059
H      2.001834      2.818115    -3.127386
C      1.028739      0.030831    -5.616960
H     -0.360189     -0.622309    -4.118597
C      2.000288      0.961727    -5.961212
H      3.107631      2.685708    -5.312779
H      0.760814     -0.760167    -6.310372
H      2.496958      0.904506    -6.924514
C      0.194374     -1.064275     1.581718
H      0.855758     -1.922026     1.421964
H      0.394643     -0.727061     2.602298
C      0.645883      0.069457     0.649025
C      1.172916     -0.194854    -0.612570
H      1.154150      0.879949     1.164787
H      0.959801     -1.135108    -1.111815
C      2.415159      0.479997    -1.012788
O      2.848195      1.518591    -0.564778
O      3.083876     -0.216231    -1.966755
H      3.860142      0.313654    -2.198806
49
 -1042.02580064 -1041.65935700  3.02 3.22
C     -1.641427      0.501763    -3.182519
C     -2.217778     -0.950514    -3.187046
H     -1.973084      0.997166    -4.100006
H     -2.986341     -1.074490    -3.959205
C     -2.761824     -1.534555    -1.915776
C     -2.211674     -2.595656    -1.326470
H     -3.660667     -1.085648    -1.498448
H     -2.646381     -3.010146    -0.421836
C     -0.969081     -3.201258    -1.833039
C     -0.309193     -2.674558    -2.863804
H     -0.571140     -4.064017    -1.306814
H      0.630539     -3.114538    -3.190928
C     -0.827062     -1.485723    -3.616176
C     -0.206231     -0.062011    -3.391824
H     -0.808219     -1.723996    -4.684558
H      0.264718      0.318126    -4.303358
C     -1.955461      1.458898    -2.021819
H     -3.003324      1.310447    -1.739210
H     -1.893843      2.482521    -2.409096
C     -1.094301      1.422538    -0.773736
C     -1.657733      1.212352     0.479902
H     -0.231941      2.078844    -0.825424
H     -2.682446      0.850174     0.531561
C     -0.915942      1.232258     1.656737
C      0.441551      1.507701     1.661785
H     -1.390690      0.858840     2.557351
H      0.840602      2.146433     0.879848
C      1.298065      1.433700     2.858087
C      2.521588      2.108102     2.863166
C      0.943670      0.702359     3.997665
C      3.351023      2.085409     3.976395
H      2.820481      2.666770     1.980161
C      1.771897      0.676767     5.109251
H      0.018024      0.136842     4.014162
C      2.976454      1.372140     5.107521
H      4.291701      2.626796     3.959604
H      1.478127      0.105604     5.984540
H      3.620694      1.352019     5.980763
C      0.795916      0.108686    -2.251884
H      1.207697      1.124777    -2.286759
H      1.640075     -0.566803    -2.436617
C      0.256020     -0.187301    -0.867470
C      1.115839     -0.181465     0.224614
H     -0.532656     -0.919882    -0.804289
H      2.119311      0.221555     0.129867
C      0.926870     -1.220670     1.245897
O     -0.099220     -1.822363     1.475121
O      2.069632     -1.477710     1.930120
H      1.847163     -2.146282     2.593995
49
 -1042.02226567 -1041.65698900  5.24 4.70
C     -1.397558      2.288578     1.333243
C     -1.005029      3.732328     1.759906
H     -2.132925      1.890063     2.040303
H     -1.728487      4.194251     2.440891
C     -0.692079      4.710474     0.664292
C      0.518861      5.248791     0.509694
H     -1.506857      5.004259     0.006460
H      0.693511      5.985794    -0.269406
C      1.649393      4.873227     1.373280
C      1.536344      3.898028     2.275715
H      2.589586      5.402048     1.245723
H      2.388529      3.620905     2.892202
C      0.253847      3.146122     2.460733
C      0.024318      1.795117     1.702614
H      0.067769      2.997331     3.528604
H      0.050446      0.912089     2.348826
C     -1.838322      1.952076    -0.085580
H     -1.313707      2.574532    -0.817359
H     -2.908763      2.150408    -0.216607
C     -1.532362      0.490362    -0.310449
C     -1.885158     -0.243843    -1.435582
H     -1.464203     -0.064040     0.620979
H     -2.278625      0.271400    -2.309574
C     -1.532797     -1.585258    -1.562059
C     -0.861600     -2.269298    -0.560369
H     -1.655697     -2.050892    -2.533866
H     -1.005081     -1.954130     0.467511
C     -0.360376     -3.647753    -0.686850
C     -0.051323     -4.366177     0.470830
C     -0.161020     -4.273815    -1.922296
C      0.406557     -5.674483     0.406147
H     -0.180415     -3.888595     1.438402
C      0.297829     -5.579735    -1.989968
H     -0.356325     -3.734902    -2.843206
C      0.578384     -6.289559    -0.827339
H      0.629122     -6.214230     1.321229
H      0.441966     -6.048248    -2.958575
H      0.934510     -7.313176    -0.884406
C      0.922130      1.587360     0.486775
H      1.945782      1.408081     0.831356
H      0.963157      2.521888    -0.079316
C      0.557593      0.480318    -0.512893
C      1.007799     -0.826036    -0.340634
H      0.549071      0.820995    -1.544174
H      1.304762     -1.163025     0.648331
C      1.705196     -1.545616    -1.414564
O      2.551498     -2.388413    -1.228361
O      1.357123     -1.161530    -2.673776
H      1.923626     -1.674076    -3.266834
49
 -1042.02283988 -1041.65669000  4.88 4.89
C     -1.455629      3.246114    -0.029692
C     -0.238238      3.930352    -0.730609
H     -2.202443      4.020147     0.170043
H     -0.487456      4.940878    -1.075605
C      0.451870      3.228973    -1.864352
C      1.722732      2.834376    -1.790062
H     -0.106535      3.090413    -2.787572
H      2.202897      2.368529    -2.645857
C      2.501259      2.967437    -0.547759
C      1.947192      3.431067     0.571912
H      3.536020      2.636819    -0.553508
H      2.531963      3.482201     1.487867
C      0.528784      3.914023     0.616686
C     -0.597672      3.026399     1.251676
H      0.520466      4.902456     1.087256
H     -1.034680      3.507017     2.132073
C     -2.187069      2.081757    -0.719235
H     -2.176309      2.265186    -1.798697
H     -3.241480      2.124491    -0.421512
C     -1.729174      0.663209    -0.451445
C     -1.489620     -0.222374    -1.495463
H     -2.130061      0.248344     0.467693
H     -1.417698      0.176942    -2.505318
C     -1.127302     -1.550080    -1.291548
C     -1.010204     -2.086712    -0.018594
H     -0.778963     -2.116725    -2.148515
H     -1.625796     -1.662691     0.768830
C     -0.544053     -3.452221     0.277711
C     -0.843954     -4.015851     1.520402
C      0.197235     -4.216925    -0.629148
C     -0.449484     -5.308224     1.839546
H     -1.404905     -3.430771     2.244398
C      0.593263     -5.507003    -0.313125
H      0.481167     -3.798714    -1.588930
C      0.267936     -6.061781     0.919847
H     -0.704491     -5.726911     2.807987
H      1.164953     -6.084362    -1.032965
H      0.577638     -7.073277     1.162670
C     -0.236801      1.595634     1.647128
H     -1.072072      1.156998     2.206359
H      0.604417      1.640261     2.349689
C      0.155129      0.671579     0.511307
C      0.555178     -0.626261     0.813668
H      0.643782      1.130065    -0.334948
H      0.423586     -1.003977     1.822968
C      1.685755     -1.249346     0.113412
O      2.399198     -2.102567     0.585985
O      1.906327     -0.762394    -1.139988
H      2.693348     -1.222496    -1.462669
