49
 -1042.02868963 -1041.66214800  0.00 0.00
C      1.200174     -0.176312     2.572735
C      1.132982     -0.396855     4.106510
H      1.708105     -1.055775     2.158213
H      1.972196     -0.965834     4.522028
C      0.892301      0.830790     4.938800
C     -0.211767      0.994823     5.669579
H      1.672413      1.588887     4.954152
H     -0.331854      1.884524     6.282040
C     -1.287406     -0.010010     5.693031
C     -1.274743     -1.052580     4.861402
H     -2.097266      0.120558     6.405127
H     -2.076077     -1.786837     4.883995
C     -0.181598     -1.206216     3.851123
C     -0.302839     -0.424568     2.514963
H      0.044724     -2.259575     3.659358
H     -0.811417      0.517300     2.760944
C      1.650083      1.056315     1.812204
H      2.725895      1.241146     1.928476
H      1.126954      1.939478     2.193996
C      1.325750      0.854689     0.335157
C      1.927941     -0.179319    -0.376842
H      1.018810      1.742872    -0.206069
H      2.541654     -0.894243     0.166986
C      1.640379     -0.466525    -1.704997
C      0.743549      0.302867    -2.435947
H      2.019317     -1.393915    -2.123614
H      0.666505      1.357423    -2.188771
C      0.341078     -0.013907    -3.819730
C     -0.022007      1.022109    -4.684561
C      0.295377     -1.325495    -4.301945
C     -0.383311      0.762264    -5.999158
H     -0.015792      2.045162    -4.318644
C     -0.064606     -1.586580    -5.616306
H      0.542306     -2.152799    -3.643801
C     -0.400573     -0.543835    -6.472525
H     -0.650906      1.583321    -6.657062
H     -0.089709     -2.611055    -5.974577
H     -0.681044     -0.749498    -7.500647
C     -0.829080     -0.926067     1.187469
H     -1.878462     -1.235373     1.274437
H     -0.261759     -1.797620     0.838701
C     -0.758134      0.201665     0.172014
C     -1.057053     -0.023961    -1.169525
H     -1.068853      1.174875     0.546862
H     -1.192459     -1.039000    -1.524448
C     -1.814754      1.025437    -1.868889
O     -1.715364      2.216445    -1.665799
O     -2.656087      0.525506    -2.802611
H     -3.073574      1.285297    -3.233834
49
 -1042.02608775 -1041.65985300  1.63 1.44
C      1.098899     -0.314120     2.572362
C      0.991236     -0.671076     4.077822
H      1.695769     -1.109670     2.109820
H      1.859076     -1.203416     4.482946
C      0.614478      0.456675     4.996593
C     -0.527361      0.466801     5.686574
H      1.326052      1.271694     5.110215
H     -0.746787      1.287969     6.363811
C     -1.513585     -0.620739     5.577534
C     -1.379485     -1.583509     4.664319
H     -2.358938     -0.618312     6.259718
H     -2.115475     -2.380048     4.589267
C     -0.238627     -1.559920     3.696393
C     -0.374076     -0.678800     2.424860
H      0.083926     -2.570789     3.428792
H     -0.970516      0.193475     2.724499
C      1.472476      1.012748     1.939630
H      2.523565      1.272354     2.121289
H      0.862359      1.813757     2.370540
C      1.224227      0.914883     0.438289
C      1.939017      0.000126    -0.329694
H      0.863619      1.818849    -0.040491
H      2.592056     -0.705186     0.179923
C      1.727419     -0.198080    -1.687172
C      0.791806      0.545378    -2.398822
H      2.201035     -1.053876    -2.158648
H      0.620324      1.569171    -2.081986
C      0.473838      0.299134    -3.818084
C      0.061600      1.360133    -4.627482
C      0.555109     -0.974447    -4.389819
C     -0.224642      1.167377    -5.971341
H     -0.034530      2.352156    -4.194654
C      0.270954     -1.169591    -5.733766
H      0.842620     -1.824485    -3.778931
C     -0.115064     -0.098699    -6.532195
H     -0.532419      2.009535    -6.583193
H      0.344540     -2.164951    -6.160773
H     -0.336027     -0.252158    -7.583691
C     -0.804776     -1.108251     1.039189
H     -1.824999     -1.512840     1.053318
H     -0.149892     -1.894497     0.644598
C     -0.798991      0.102090     0.120961
C     -1.010697     -0.043794    -1.247893
H     -1.210436      1.004492     0.566739
H     -1.024843     -1.039086    -1.675973
C     -1.891338      0.907458    -1.946309
O     -2.650867      0.626793    -2.839587
O     -1.779297      2.186099    -1.481235
H     -2.422329      2.711197    -1.978263
49
 -1042.02224773 -1041.65622400  4.04 3.72
C     -1.204775      2.389565     0.909980
C     -2.188639      3.577800     0.750614
H     -1.638136      1.736523     1.677250
H     -2.721931      3.853464     1.667268
C     -1.632279      4.811563     0.097837
C     -2.077113      5.262188    -1.076443
H     -0.858786      5.358402     0.632814
H     -1.668877      6.176690    -1.498474
C     -3.132455      4.565051    -1.829856
C     -3.576011      3.367070    -1.446823
H     -3.540632      5.050723    -2.711624
H     -4.352730      2.858763    -2.012566
C     -2.980748      2.680553    -0.257827
C     -1.661413      1.886179    -0.454561
H     -3.721203      2.070012     0.267997
H     -1.095098      2.430044    -1.222360
C      0.302095      2.417887     1.081461
H      0.600107      2.847754     2.046475
H      0.753612      3.035835     0.298154
C      0.823173      0.986380     0.980583
C      0.411143      0.029874     1.907342
H      1.799527      0.872109     0.522689
H     -0.365860      0.298078     2.619659
C      0.788745     -1.305397     1.852365
C      1.665934     -1.777836     0.885898
H      0.270946     -2.010132     2.495990
H      2.430916     -1.100552     0.518983
C      1.996734     -3.206115     0.722603
C      3.242853     -3.571196     0.204738
C      1.094852     -4.222673     1.056160
C      3.594719     -4.905661     0.064600
H      3.940604     -2.794897    -0.094916
C      1.446334     -5.557831     0.916679
H      0.107131     -3.969430     1.428947
C      2.700118     -5.905517     0.426574
H      4.572270     -5.166617    -0.328749
H      0.735779     -6.333225     1.185756
H      2.974668     -6.949973     0.318833
C     -1.486309      0.400981    -0.689265
H     -1.971040      0.091256    -1.623545
H     -1.934886     -0.186311     0.121339
C      0.000276      0.106743    -0.810663
C      0.467843     -1.199374    -0.933053
H      0.562942      0.834704    -1.391217
H     -0.224998     -2.020446    -0.772991
C      1.624322     -1.417692    -1.828674
O      2.495799     -0.603556    -2.008142
O      1.685597     -2.615074    -2.461616
H      0.944881     -3.176687    -2.206221
49
 -1042.01611088 -1041.65014700  7.89 7.53
C      2.520208      0.925535     0.764514
C      4.006056      0.703698     1.149361
H      2.527316      1.399739    -0.224379
H      4.696513      1.456127     0.752344
C      4.281452      0.483213     2.610081
C      4.766841     -0.666709     3.081167
H      4.097929      1.314519     3.287357
H      4.980753     -0.773473     4.141314
C      5.046151     -1.813638     2.201427
C      4.675997     -1.805455     0.920166
H      5.560409     -2.672164     2.623851
H      4.883528     -2.658856     0.279590
C      3.927954     -0.640511     0.352334
C      2.391434     -0.581120     0.568793
H      4.172214     -0.479244    -0.702008
H      2.208836     -1.036091     1.551842
C      1.407803      1.535162     1.595834
H      1.564540      2.607198     1.772653
H      1.368268      1.047936     2.575893
C      0.090610      1.330068     0.855373
C     -0.106671      1.898896    -0.400202
H     -0.782402      1.184365     1.484874
H      0.734699      2.392534    -0.881326
C     -1.248719      1.708338    -1.164546
C     -2.322851      0.945369    -0.718669
H     -1.229132      2.043416    -2.197029
H     -2.532825      0.948701     0.346875
C     -3.500761      0.638306    -1.551984
C     -3.425303      0.551108    -2.945466
C     -4.735493      0.407437    -0.941635
C     -4.556777      0.282954    -3.702488
H     -2.473563      0.693310    -3.447636
C     -5.867858      0.138098    -1.696639
H     -4.807052      0.432917     0.142082
C     -5.784410      0.081360    -3.081946
H     -4.479893      0.224731    -4.783698
H     -6.819101     -0.027815    -1.200897
H     -6.669236     -0.127125    -3.674888
C      1.301686     -1.025905    -0.382284
H      1.384836     -2.097518    -0.603472
H      1.363936     -0.492259    -1.338056
C     -0.052106     -0.792613     0.269309
C     -1.230155     -0.979525    -0.450974
H     -0.066910     -1.092285     1.318449
H     -1.159117     -1.118347    -1.523106
C     -2.391375     -1.690874     0.141981
O     -3.105171     -2.421378    -0.486013
O     -2.639145     -1.484314     1.467728
H     -1.973946     -0.897820     1.844146
