49
 -1042.02495727 -1041.65911500  0.00 0.00
C     -1.519101      1.049880    -2.304455
C     -2.077705      0.718874    -3.716618
H     -0.948079      1.982642    -2.384909
H     -2.247088      1.596527    -4.350500
C     -3.287003     -0.170974    -3.757801
C     -3.261461     -1.392653    -4.294523
H     -4.217429      0.227041    -3.359473
H     -4.169336     -1.988643    -4.334147
C     -2.032971     -1.966733    -4.866766
C     -0.859422     -1.345366    -4.744581
H     -2.105586     -2.915040    -5.391579
H      0.042246     -1.781302    -5.168057
C     -0.750144     -0.060369    -3.984779
C     -0.560956     -0.131712    -2.444435
H      0.002699      0.598433    -4.428697
H     -1.073846     -1.035449    -2.095939
C     -2.306429      1.045952    -1.000798
H     -2.724893      2.033456    -0.781382
H     -3.147120      0.345828    -1.077810
C     -1.413357      0.582840     0.135930
C     -1.418254      1.221779     1.372482
H     -1.202161     -0.482616     0.117216
H     -1.959046      2.161021     1.464705
C     -0.602726      0.842888     2.427346
C      0.307006     -0.204857     2.303956
H     -0.552595      1.496657     3.291233
H      0.044306     -1.024918     1.642319
C      1.248057     -0.597203     3.372901
C      1.760209     -1.896668     3.387910
C      1.660151      0.284769     4.377394
C      2.622833     -2.318413     4.391424
H      1.465857     -2.590801     2.604986
C      2.524655     -0.132691     5.378098
H      1.309021      1.311520     4.375610
C      3.006185     -1.437468     5.394008
H      2.995860     -3.337857     4.389723
H      2.829269      0.566652     6.150608
H      3.680460     -1.762023     6.180187
C      0.771810      0.033192    -1.723370
H      1.223624     -0.940055    -1.504905
H      1.477229      0.566814    -2.374489
C      0.666309      0.861585    -0.446698
C      1.506745      0.548577     0.626830
H      0.472243      1.920685    -0.583964
H      2.107081     -0.353742     0.573591
C      2.113199      1.663983     1.376056
O      1.625724      2.756205     1.550307
O      3.332563      1.338388     1.870604
H      3.641368      2.111372     2.365257
49
 -1042.02231950 -1041.65608400  1.66 1.90
C      0.751313     -2.702968    -0.788807
C      0.284476     -4.183926    -0.855482
H      1.731921     -2.688177    -0.298191
H      1.102426     -4.912154    -0.893500
C     -0.728833     -4.510881    -1.914904
C     -1.969061     -4.908729    -1.623703
H     -0.409437     -4.446393    -2.952482
H     -2.658771     -5.168539    -2.422338
C     -2.441414     -5.033813    -0.235372
C     -1.694041     -4.617380     0.787493
H     -3.419729     -5.473567    -0.063609
H     -2.055164     -4.711296     1.808830
C     -0.364791     -3.971724     0.549840
C     -0.331015     -2.446037     0.258781
H      0.344026     -4.221257     1.345538
H     -1.261846     -2.195584    -0.262507
C      0.741417     -1.702293    -1.937478
H      1.693293     -1.702579    -2.478262
H     -0.041531     -1.971606    -2.656808
C      0.432685     -0.315173    -1.404412
C      1.119929      0.810460    -1.850588
H     -0.603518     -0.187028    -1.104109
H      1.990490      0.664868    -2.486831
C      0.880385      2.086305    -1.364899
C     -0.062504      2.317608    -0.364153
H      1.561513      2.880219    -1.653729
H     -0.927870      1.662027    -0.336813
C     -0.324566      3.642165     0.232550
C     -1.561835      3.880558     0.835495
C      0.615231      4.677258     0.229835
C     -1.869438      5.119063     1.383256
H     -2.299389      3.082724     0.864581
C      0.312984      5.913704     0.778777
H      1.600866      4.515926    -0.193704
C     -0.932448      6.143416     1.353173
H     -2.843216      5.283568     1.833840
H      1.056607      6.704320     0.762498
H     -1.167085      7.113632     1.779390
C      0.005961     -1.371151     1.286199
H     -0.903216     -0.937604     1.715524
H      0.562605     -1.820070     2.119859
C      0.899694     -0.267882     0.727688
C      0.741953      1.033666     1.214264
H      1.915848     -0.567414     0.495709
H     -0.098008      1.240945     1.868808
C      1.922227      1.856900     1.546146
O      1.944764      2.703187     2.406430
O      3.025708      1.567373     0.808717
H      3.730405      2.135336     1.149455
