49
 -1041.98549841 -1041.62363800  0.00 0.00
C      1.586447      1.232125     1.183774
C      1.113197     -0.112716     1.687751
H      1.164835      1.360955     0.178018
H      1.489199     -0.296541     2.699346
C     -0.405819     -0.019429     1.658560
C     -0.976856     -0.717777     0.469564
H     -0.860114     -0.400986     2.576276
H     -1.819467     -1.386170     0.590045
C     -0.109536     -0.974594    -0.655945
C      1.254626     -0.947029    -0.625811
H     -0.583847     -1.314082    -1.576522
H      1.803095     -1.190269    -1.532790
C      2.032807     -0.761584     0.650633
C      2.933092      0.552013     0.803619
H      2.536827     -1.693928     0.927663
H      3.601002      0.408358     1.660667
C      0.762455      2.209152     2.038200
H      0.966894      2.107668     3.109227
H      0.824726      3.264585     1.760018
C     -0.608302      1.574432     1.622864
C     -1.938431      1.891861     2.204576
H     -0.681675      1.829458     0.563782
H     -2.045063      2.376144     3.170894
C     -3.017873      1.405809     1.545412
C     -2.921313      0.800882     0.244553
H     -3.988474      1.428312     2.035617
H     -2.249010      1.251701    -0.474655
C     -3.965307     -0.030935    -0.337902
C     -4.982017     -0.627753     0.423647
C     -3.939919     -0.293013    -1.716084
C     -5.952126     -1.415339    -0.178649
H     -5.013923     -0.481319     1.498458
C     -4.908209     -1.081312    -2.316797
H     -3.145265      0.141121    -2.316950
C     -5.925182     -1.642657    -1.550495
H     -6.734340     -1.860239     0.428783
H     -4.871568     -1.259440    -3.387099
H     -6.686872     -2.258198    -2.017791
C      3.698127      1.094379    -0.397824
H      3.004124      1.288957    -1.222192
H      4.155193      2.053710    -0.121558
C      4.773912      0.151776    -0.843584
C      4.842971     -0.394160    -2.055887
H      5.534768     -0.104968    -0.109250
H      4.113287     -0.174908    -2.829220
C      5.903512     -1.334741    -2.479125
O      5.970364     -1.831181    -3.575705
O      6.814629     -1.599305    -1.512165
H      7.450420     -2.218822    -1.897946
49
 -1041.98535485 -1041.62349300  0.09 0.09
C     -1.230859      1.375293     0.375845
C     -1.943844      0.073533     0.083856
H     -0.225549      1.114595     0.734006
H     -2.953847      0.268486    -0.290644
C     -1.076706     -0.613450    -0.961565
C     -0.230350     -1.683582    -0.356747
H     -1.668330     -1.018456    -1.786287
H     -0.169912     -2.655321    -0.829268
C      0.006720     -1.644897     1.066189
C     -0.723199     -0.929483     1.971388
H      0.769309     -2.317750     1.457891
H     -0.463049     -1.005842     3.024808
C     -1.974214     -0.179326     1.592904
C     -1.982744      1.415409     1.736095
H     -2.858493     -0.674726     2.008960
H     -3.017765      1.761680     1.642263
C     -0.972455      1.927642    -1.035574
H     -1.897791      2.113944    -1.590645
H     -0.332462      2.811980    -1.100064
C     -0.230205      0.634611    -1.516175
C      0.197900      0.330922    -2.906529
H      0.685716      0.645914    -0.921895
H     -0.224923      0.843867    -3.765475
C      1.027039     -0.728718    -3.065542
C      1.641889     -1.402547    -1.953803
H      1.198834     -1.117762    -4.066547
H      2.006495     -0.796673    -1.133712
C      2.241761     -2.726599    -2.044770
C      3.104891     -3.156553    -1.025569
C      1.962851     -3.622629    -3.088360
C      3.697217     -4.408562    -1.064602
H      3.312399     -2.484560    -0.197098
C      2.557577     -4.875212    -3.127769
H      1.269975     -3.342597    -3.875261
C      3.430969     -5.273838    -2.121473
H      4.369994     -4.712466    -0.268596
H      2.333873     -5.549102    -3.949102
H      3.895162     -6.253989    -2.156964
C     -1.297971      2.079440     2.923562
H     -1.824728      1.826823     3.849977
H     -0.277610      1.683492     3.008788
C     -1.233200      3.566065     2.753553
C     -1.791870      4.449083     3.578370
H     -0.703354      3.930301     1.875984
H     -2.339460      4.143835     4.464588
C     -1.728419      5.913980     3.384767
O     -2.236776      6.718238     4.125556
O     -1.036908      6.289138     2.281782
H     -1.063577      7.256368     2.258908
49
 -1041.98395522 -1041.62119000  0.97 1.54
C      1.969635      1.685380    -0.219076
C      1.057703      2.058524     0.927998
H      1.748400      0.638930    -0.460744
H      1.214726      3.102001     1.219748
C     -0.347737      1.829948     0.389635
C     -0.925470      0.546864     0.886280
H     -1.017277      2.662101     0.621033
H     -1.934134      0.525386     1.277763
C     -0.021114     -0.460986     1.383540
C      1.275647     -0.250143     1.754259
H     -0.438300     -1.450812     1.567762
H      1.847685     -1.089367     2.139466
C      1.889892      1.125011     1.812526
C      3.100185      1.486561     0.828035
H      2.054766      1.423109     2.854085
H      3.510745      2.443723     1.168449
C      1.352700      2.459777    -1.394996
H      1.364093      3.543539    -1.237631
H      1.759079      2.237782    -2.385405
C     -0.069383      1.835533    -1.193046
C     -1.317187      2.246667    -1.887896
H      0.084823      0.787960    -1.459807
H     -1.412637      3.209874    -2.380638
C     -2.387346      1.428491    -1.743327
C     -2.289592      0.127873    -1.137988
H     -3.367866      1.784345    -2.051220
H     -1.420392     -0.474598    -1.370311
C     -3.438395     -0.624548    -0.652951
C     -4.682473     -0.033127    -0.383953
C     -3.296403     -1.996472    -0.395280
C     -5.745520     -0.793505     0.080732
H     -4.821785      1.032709    -0.533102
C     -4.358134     -2.755093     0.070621
H     -2.332684     -2.465639    -0.574448
C     -5.592730     -2.157486     0.305587
H     -6.701497     -0.316492     0.273975
H     -4.224303     -3.817175     0.251452
H     -6.427350     -2.748837     0.667721
C      4.256649      0.521990     0.563464
H      4.931609      0.997883    -0.161217
H      4.829932      0.388154     1.487364
C      3.872134     -0.819169     0.016234
C      4.206392     -1.982071     0.573235
H      3.321984     -0.836475    -0.920397
H      4.768569     -2.038794     1.500268
C      3.859472     -3.300165     0.000869
O      4.178084     -4.355757     0.489218
O      3.138854     -3.225611    -1.144139
H      2.975958     -4.137787    -1.423746
49
 -1041.97806959 -1041.61704700  4.66 4.14
C      1.516177      1.408522    -0.137281
C      1.736923      0.622771     1.136713
H      0.966909      0.753747    -0.827139
H      2.272175      1.232075     1.872037
C      0.336704      0.264483     1.614282
C     -0.011233     -1.149049     1.286079
H      0.206905      0.448365     2.683649
H     -0.458748     -1.783671     2.039873
C      0.740340     -1.814648     0.249074
C      1.948864     -1.407970    -0.237859
H      0.355063     -2.771514    -0.102605
H      2.431165     -2.012903    -1.002522
C      2.717545     -0.256339     0.357346
C      2.970006      1.039683    -0.547086
H      3.605434     -0.621736     0.885238
H      3.726052      1.659073    -0.051134
C      0.456967      2.436081     0.294013
H      0.810872      3.094351     1.094391
H      0.020642      3.043911    -0.503020
C     -0.540240      1.343162     0.809121
C     -1.797203      1.584506     1.564433
H     -0.841933      0.837477    -0.110359
H     -1.988272      2.519656     2.082793
C     -2.628104      0.524164     1.709887
C     -2.433098     -0.713104     1.003694
H     -3.446723      0.590312     2.422891
H     -2.114123     -0.661078    -0.029805
C     -3.073160     -1.966156     1.379715
C     -3.630760     -2.189851     2.648106
C     -3.100922     -3.022485     0.456640
C     -4.226440     -3.403472     2.958746
H     -3.594729     -1.411286     3.403248
C     -3.694493     -4.235127     0.768197
H     -2.651776     -2.874634    -0.521834
C     -4.267142     -4.430178     2.021428
H     -4.659041     -3.551647     3.943460
H     -3.712004     -5.032545     0.031697
H     -4.735388     -5.377455     2.268089
C      3.282653      0.882498    -2.029889
H      4.260313      0.395015    -2.139012
H      2.539235      0.226589    -2.495801
C      3.317797      2.204699    -2.729122
C      2.519538      2.560204    -3.731784
H      4.046738      2.936270    -2.383875
H      1.768655      1.873497    -4.119387
C      2.641841      3.907117    -4.356989
O      3.430242      4.747656    -4.024974
O      1.777842      4.154225    -5.376217
H      1.201927      3.396739    -5.527150
