49
 -1042.03249375 -1041.66684600  0.00 0.00
C     -1.149117     -2.189511     1.566745
C     -2.339921     -2.504144     2.514635
H     -0.708368     -3.063993     1.077262
H     -2.110889     -2.385927     3.580595
C     -2.977898     -3.842265     2.279906
C     -4.233365     -3.974167     1.847516
H     -2.376511     -4.724841     2.487247
H     -4.662214     -4.963556     1.713464
C     -5.078305     -2.806792     1.552586
C     -4.577398     -1.571224     1.574291
H     -6.123356     -2.976554     1.309696
H     -5.209208     -0.716284     1.345238
C     -3.129901     -1.332831     1.869326
C     -2.119780     -1.362382     0.686765
H     -3.003021     -0.409092     2.442400
H     -2.521470     -1.996433    -0.110219
C     -0.063465     -1.335787     2.220038
H     -0.542341     -0.587877     2.863641
H      0.535597     -1.972086     2.883889
C      0.860660     -0.619657     1.257232
C      1.227674      0.695605     1.530448
H      1.561915     -1.253918     0.722631
H      0.736986      1.195726     2.362904
C      1.989256      1.485432     0.681080
C      2.438918      1.010492    -0.541891
H      2.061854      2.544329     0.903775
H      2.632166     -0.053959    -0.635396
C      3.148809      1.834907    -1.536186
C      3.962971      1.211157    -2.485151
C      3.034390      3.229089    -1.579041
C      4.671875      1.951850    -3.421794
H      4.050512      0.127738    -2.478329
C      3.738251      3.969683    -2.515905
H      2.379911      3.740670    -0.880880
C      4.565042      3.336300    -3.438254
H      5.309669      1.445788    -4.139744
H      3.638205      5.050572    -2.530979
H      5.116743      3.919470    -4.168628
C     -1.571652     -0.067082     0.103600
H     -2.267817      0.341070    -0.636475
H     -1.461832      0.706295     0.867582
C     -0.236843     -0.360310    -0.552644
C      0.423037      0.502283    -1.429764
H     -0.109097     -1.409728    -0.816293
H      0.939575      0.076494    -2.281645
C     -0.030247      1.889131    -1.599280
O     -0.537846      2.587940    -0.751249
O      0.202016      2.351765    -2.853446
H     -0.084166      3.276614    -2.861299
49
 -1042.03035842 -1041.66427000  1.34 1.62
C     -1.487132     -1.751775     1.969624
C     -2.401430     -0.590157     2.458438
H     -1.858018     -2.658607     2.459231
H     -1.910595      0.374827     2.314385
C     -2.984955     -0.690620     3.833257
C     -4.116003     -1.364150     4.045730
H     -2.451324     -0.232970     4.662911
H     -4.522990     -1.462368     5.048072
C     -4.842361     -1.995614     2.932623
C     -4.488935     -1.800055     1.660894
H     -5.694990     -2.625966     3.170106
H     -5.050129     -2.278237     0.860617
C     -3.342718     -0.914634     1.267270
C     -2.159030     -1.648647     0.577424
H     -3.719936     -0.048371     0.711308
H     -2.403960     -2.609691     0.114197
C      0.033253     -1.721655     2.125396
H      0.269226     -1.444057     3.161356
H      0.396697     -2.747426     2.000772
C      0.826419     -0.838137     1.180584
C      0.803813      0.553856     1.237432
H      1.757719     -1.290939     0.856306
H      0.085098      1.046990     1.886548
C      1.515332      1.343699     0.340920
C      2.356542      0.796703    -0.615907
H      1.288107      2.403827     0.304447
H      2.825575     -0.158974    -0.406247
C      3.049711      1.583743    -1.649016
C      4.208296      1.067340    -2.236291
C      2.589149      2.832880    -2.082484
C      4.908036      1.784741    -3.196631
H      4.570686      0.091187    -1.924614
C      3.283764      3.547015    -3.046149
H      1.669026      3.241246    -1.678646
C      4.449672      3.031008    -3.603323
H      5.812960      1.368904    -3.628556
H      2.911534      4.514267    -3.369383
H      4.992159      3.595418    -4.354986
C     -1.436707     -0.743846    -0.416340
H     -1.997128     -0.732485    -1.357086
H     -1.437520      0.291985    -0.069690
C     -0.013524     -1.171054    -0.697118
C      0.772667     -0.564125    -1.679413
H      0.178677     -2.236262    -0.571871
H      1.556880     -1.147475    -2.148354
C      0.288563      0.570104    -2.475928
O     -0.512799      1.413319    -2.138909
O      0.873942      0.603674    -3.701198
H      0.558677      1.411560    -4.131706
49
 -1042.02843841 -1041.66283300  2.54 2.52
C     -1.779114      1.948685    -1.192768
C     -2.377379      3.359450    -0.933454
H     -1.771298      1.639658    -2.243014
H     -3.354666      3.349616    -0.435942
C     -2.437570      4.236671    -2.149910
C     -1.723553      5.358199    -2.263608
H     -3.104429      3.930244    -2.953024
H     -1.815969      5.974855    -3.153539
C     -0.808512      5.805547    -1.202492
C     -0.553312      5.036225    -0.143666
H     -0.338987      6.779673    -1.305252
H      0.132116      5.373312     0.630363
C     -1.165977      3.677104    -0.014400
C     -0.423352      2.467960    -0.651115
H     -1.398427      3.460151     1.032935
H      0.192219      2.824037    -1.483463
C     -2.393724      0.857230    -0.317887
H     -2.565470      1.263211     0.686475
H     -3.383191      0.599797    -0.717095
C     -1.568314     -0.405778    -0.192465
C     -1.481340     -1.037804     1.045447
H     -1.506680     -1.014066    -1.090266
H     -1.926293     -0.536818     1.903279
C     -0.674506     -2.136461     1.302455
C      0.133941     -2.690564     0.319495
H     -0.547433     -2.443510     2.335233
H     -0.202126     -2.616063    -0.710430
C      1.092336     -3.784353     0.553279
C      1.649554     -4.045296     1.809632
C      1.480190     -4.592347    -0.518991
C      2.533269     -5.097392     1.989997
H      1.403401     -3.410781     2.654606
C      2.361945     -5.649826    -0.340072
H      1.072496     -4.394057    -1.506846
C      2.889347     -5.909272     0.918207
H      2.952290     -5.283999     2.973799
H      2.636917     -6.272656    -1.185533
H      3.579124     -6.734491     1.063482
C      0.373578      1.505138     0.219145
H      1.376549      1.904863     0.404179
H     -0.092081      1.380899     1.200042
C      0.472134      0.174290    -0.501095
C      1.347350     -0.864421    -0.181896
H      0.303207      0.262287    -1.573791
H      1.783383     -1.423132    -1.001446
C      2.226369     -0.861163     1.000985
O      3.346791     -1.312236     1.010852
O      1.681773     -0.308539     2.117124
H      2.373418     -0.344080     2.792447
49
 -1042.02596214 -1041.65986100  4.10 4.38
C     -1.381529     -2.472843     0.985303
C     -2.128602     -1.709699     2.118150
H     -1.777913     -3.493852     0.993031
H     -1.571800     -0.818052     2.415136
C     -2.563913     -2.490446     3.318887
C     -3.720101     -3.154846     3.316882
H     -1.903679     -2.534313     4.181826
H     -4.021508     -3.745968     4.176938
C     -4.617926     -3.109820     2.151953
C     -4.391030     -2.295485     1.119512
H     -5.491885     -3.755502     2.154290
H     -5.077313     -2.282639     0.275215
C     -3.220941     -1.356539     1.072692
C     -2.190821     -1.654495    -0.052267
H     -3.578564     -0.320279     1.092126
H     -2.570050     -2.234573    -0.899531
C      0.143858     -2.561615     0.923355
H      0.511304     -2.858981     1.914629
H      0.398436     -3.387485     0.250370
C      0.908120     -1.338149     0.455735
C      1.025277     -0.173461     1.209380
H      1.745231     -1.579468    -0.191150
H      0.442331     -0.069455     2.120968
C      1.694530      0.950283     0.736484
C      2.348792      0.959388    -0.486632
H      1.574712      1.879400     1.284098
H      2.745704      0.021105    -0.859725
C      2.984607      2.146146    -1.080633
C      2.651005      3.453760    -0.708886
C      3.957721      1.972250    -2.069029
C      3.292333      4.540234    -1.282466
H      1.879066      3.626489     0.033247
C      4.603795      3.058579    -2.641957
H      4.217306      0.965277    -2.384866
C      4.275559      4.349425    -2.247523
H      3.021937      5.546010    -0.976281
H      5.365260      2.896335    -3.398393
H      4.777670      5.202581    -2.692307
C     -1.505195     -0.381041    -0.539946
H     -2.169809      0.125110    -1.248765
H     -1.368116      0.317076     0.289211
C     -0.171053     -0.633596    -1.205226
C      0.566344      0.356776    -1.855311
H     -0.065053     -1.623795    -1.647166
H      1.239001      0.043825    -2.646187
C      0.125655      1.748412    -2.057278
O      0.350832      2.374185    -3.066207
O     -0.561827      2.307022    -1.026677
H     -0.797754      3.196721    -1.325010
