49
 -1042.02666195 -1041.66108300  0.00 0.00
C      0.731815      0.511485    -2.761175
C      0.539553      0.670644    -4.292913
H      0.615237      1.515856    -2.330985
H      0.927265     -0.206713    -4.819921
C      0.993345      1.944145    -4.934096
C      0.214337      3.026689    -4.917713
H      1.982405      1.981984    -5.383624
H      0.555712      3.961135    -5.353904
C     -1.124459      2.991028    -4.306929
C     -1.679090      1.852531    -3.886906
H     -1.668224      3.927488    -4.214895
H     -2.675449      1.861385    -3.450208
C     -0.994721      0.522307    -4.026977
C     -0.620578     -0.186965    -2.699293
H     -1.546372     -0.102837    -4.738032
H     -0.473886     -1.249450    -2.939860
C      1.844835     -0.206221    -2.029064
H      2.801572      0.320256    -2.142192
H      1.983948     -1.220699    -2.422819
C      1.463802     -0.245994    -0.560926
C      2.075747     -1.103092     0.348172
H      1.121726      0.718795    -0.192910
H      2.707677     -1.901073    -0.037139
C      1.760305     -1.120344     1.699129
C      0.805094     -0.263283     2.236081
H      2.147281     -1.934087     2.302358
H      0.668917      0.706527     1.768160
C      0.388772     -0.292213     3.651924
C      0.525140     -1.429150     4.456059
C     -0.173818      0.852910     4.221095
C      0.140264     -1.405942     5.787866
H      0.923539     -2.346570     4.035527
C     -0.553769      0.880203     5.556506
H     -0.304209      1.739921     3.606647
C     -0.395112     -0.250199     6.347124
H      0.255501     -2.298212     6.395490
H     -0.975305      1.786675     5.979629
H     -0.691925     -0.234756     7.390995
C     -1.326591     -0.096648    -1.364033
H     -2.356142     -0.471888    -1.433812
H     -1.388689      0.945036    -1.026374
C     -0.594592     -0.956599    -0.340497
C     -0.956020     -0.887057     1.005780
H     -0.324491     -1.950289    -0.690365
H     -1.583864     -0.066874     1.339615
C     -1.119316     -2.151940     1.742182
O     -0.519416     -3.182211     1.539680
O     -2.058689     -2.051500     2.714405
H     -2.069057     -2.904198     3.173136
49
 -1042.02395241 -1041.65830200  1.70 1.75
C      0.510645      0.424309    -2.791847
C      0.205648      0.528299    -4.310025
H      0.427635      1.444075    -2.391439
H      0.551312     -0.369818    -4.831356
C      0.613308      1.775066    -5.029974
C     -0.159856      2.861376    -4.995656
H      1.566068      1.791217    -5.553152
H      0.150115      3.777427    -5.490389
C     -1.449381      2.854865    -4.285888
C     -1.973816      1.735236    -3.784226
H     -1.982402      3.796870    -4.187764
H     -2.934672      1.764962    -3.274921
C     -1.305031      0.397317    -3.926193
C     -0.835055     -0.265253    -2.604978
H     -1.909258     -0.250421    -4.571201
H     -0.708298     -1.336191    -2.817831
C      1.675162     -0.270209    -2.119474
H      2.620901      0.248443    -2.324388
H      1.783494     -1.298729    -2.485619
C      1.404832     -0.255030    -0.627107
C      2.085863     -1.071808     0.269262
H      1.080604      0.720775    -0.272155
H      2.703922     -1.875593    -0.127048
C      1.861846     -1.038237     1.637997
C      0.932572     -0.170738     2.205569
H      2.309206     -1.815889     2.248004
H      0.759441      0.777547     1.706475
C      0.618383     -0.133515     3.646258
C      0.823936     -1.225289     4.495456
C      0.085789      1.035060     4.196360
C      0.538500     -1.136957     5.848915
H      1.200337     -2.161225     4.096156
C     -0.196551      1.128583     5.552661
H     -0.098931      1.888464     3.549231
C      0.032766      0.041865     6.386249
H      0.708344     -1.995948     6.490487
H     -0.596469      2.052550     5.958533
H     -0.186334      0.109049     7.447138
C     -1.443100     -0.124844    -1.226627
H     -2.477086     -0.494075    -1.208595
H     -1.475231      0.927360    -0.919212
C     -0.645859     -0.956400    -0.228875
C     -0.903727     -0.830654     1.136521
H     -0.400963     -1.957124    -0.574758
H     -1.496033      0.014204     1.473768
C     -1.118460     -2.029335     1.967930
O     -1.880622     -2.080797     2.902773
O     -0.401348     -3.115707     1.578918
H     -0.672147     -3.835130     2.166045
49
 -1042.01975351 -1041.65506000  4.34 3.78
C      1.290084     -2.423517     0.892584
C      1.955722     -3.821441     0.786641
H      2.103557     -1.690512     0.800467
H      1.277765     -4.597093     1.156054
C      3.337875     -3.989583     1.334575
C      4.401385     -3.637641     0.610656
H      3.459130     -4.371667     2.345032
H      5.403832     -3.728379     1.019126
C      4.251081     -3.113069    -0.756474
C      3.075520     -3.112300    -1.387527
H      5.137085     -2.730582    -1.256270
H      3.002817     -2.726995    -2.402304
C      1.825842     -3.667141    -0.764777
C      0.694771     -2.641628    -0.492261
H      1.507591     -4.562222    -1.310838
H     -0.233199     -3.220525    -0.383145
C      0.304675     -1.928273     1.928839
H      0.776136     -1.831743     2.915425
H     -0.536673     -2.623938     2.036745
C     -0.178312     -0.564778     1.467354
C     -1.301360      0.054123     2.008744
H      0.639640      0.075338     1.143548
H     -1.969444     -0.537030     2.631684
C     -1.722165      1.320083     1.625401
C     -1.035219      2.055289     0.667367
H     -2.697596      1.656705     1.958602
H      0.033157      1.892353     0.567662
C     -1.474220      3.373899     0.172291
C     -2.806013      3.799917     0.233945
C     -0.530364      4.240600    -0.388011
C     -3.167525      5.060811    -0.213634
H     -3.571861      3.132231     0.613167
C     -0.890798      5.505908    -0.832464
H      0.505944      3.920563    -0.460355
C     -2.212223      5.922922    -0.742318
H     -4.205448      5.373525    -0.155406
H     -0.137754      6.167204    -1.249594
H     -2.499747      6.910396    -1.088909
C      0.373354     -1.375153    -1.255597
H      0.096606     -1.597057    -2.294409
H      1.244603     -0.709570    -1.290782
C     -0.816226     -0.682823    -0.598707
C     -1.207019      0.583244    -1.037380
H     -1.639537     -1.342784    -0.337043
H     -0.516434      1.141647    -1.666602
C     -2.654424      0.836608    -1.224850
O     -3.531606      0.276675    -0.621979
O     -2.977695      1.763432    -2.164857
H     -2.185310      2.163977    -2.539416
