49
 -1042.02775654 -1041.66158900  0.00 0.00
C     -0.066131     -2.157411     1.838193
C      0.547298     -3.380662     2.566754
H     -0.846083     -2.542657     1.165870
H     -0.148429     -4.211323     2.729262
C      1.283922     -3.076934     3.840297
C      2.595749     -3.281905     3.974431
H      0.703105     -2.700320     4.679333
H      3.084721     -3.078492     4.923457
C      3.419670     -3.802330     2.870974
C      2.919542     -3.938469     1.642162
H      4.451294     -4.068932     3.082157
H      3.538153     -4.320880     0.833886
C      1.511652     -3.527003     1.344560
C      1.229601     -2.027716     1.046811
H      1.063961     -4.159660     0.572222
H      1.943617     -1.451442     1.651059
C     -0.554239     -0.859173     2.442474
H     -1.470275     -1.003854     3.030887
H      0.201018     -0.436117     3.114250
C     -0.847440      0.095797     1.298929
C     -0.949719      1.468361     1.502784
H     -1.450040     -0.351004     0.512276
H     -0.621660      1.872232     2.459074
C     -1.257181      2.362075     0.485031
C     -1.521966      1.924751    -0.808047
H     -1.140506      3.423626     0.679288
H     -1.986397      0.951812    -0.935300
C     -1.752342      2.840810    -1.942369
C     -1.185003      4.117461    -1.998854
C     -2.548400      2.423204    -3.012503
C     -1.438432      4.960860    -3.071246
H     -0.536827      4.458423    -1.197528
C     -2.801947      3.265394    -4.086118
H     -2.975575      1.424521    -2.997145
C     -2.252270      4.540977    -4.117410
H     -0.993308      5.950716    -3.094734
H     -3.432544      2.924387    -4.901346
H     -2.450539      5.201823    -4.955240
C      1.088494     -1.383590    -0.314362
H      2.022509     -1.466401    -0.886648
H      0.305765     -1.869758    -0.901770
C      0.795621      0.102007    -0.141417
C      0.431193      0.926070    -1.213117
H      1.458236      0.579969     0.576676
H      0.890333      1.903923    -1.287483
C     -0.013560      0.342476    -2.487505
O     -0.743771     -0.617613    -2.613919
O      0.446390      1.031273    -3.557663
H      0.052741      0.620703    -4.341374
49
 -1042.02334231 -1041.65726500  2.77 2.71
C     -2.065329      0.091156    -1.901128
C     -2.627379      0.302839    -3.330446
H     -2.422993      0.931554    -1.288903
H     -3.595204      0.814995    -3.369265
C     -2.662298     -0.919940    -4.202547
C     -1.930245     -1.027808    -5.313183
H     -3.334157     -1.724796    -3.912768
H     -2.008250     -1.917238    -5.932842
C     -1.017734      0.040921    -5.751563
C     -0.763095      1.092708    -4.971975
H     -0.550917     -0.051174    -6.728048
H     -0.085271      1.875142    -5.304448
C     -1.372213      1.193070    -3.608598
C     -0.681671      0.442155    -2.436177
H     -1.567358      2.233764    -3.332489
H     -0.239339     -0.466432    -2.866816
C     -2.109035     -1.164789    -1.057643
H     -3.131450     -1.397998    -0.730939
H     -1.745113     -2.027074    -1.627552
C     -1.239787     -0.926445     0.163225
C     -0.767431     -1.976477     0.944306
H     -1.444409      0.021451     0.654661
H     -0.876066     -2.990724     0.563935
C      0.012187     -1.783913     2.076442
C      0.353280     -0.509342     2.521114
H      0.486975     -2.650469     2.526072
H     -0.353821      0.295913     2.352100
C      1.261735     -0.267063     3.658323
C      1.107215      0.886764     4.431091
C      2.298737     -1.146069     3.985514
C      1.934143      1.138358     5.516786
H      0.319955      1.591905     4.179643
C      3.125869     -0.897233     5.071450
H      2.464377     -2.035433     3.385521
C      2.944617      0.243666     5.845365
H      1.786959      2.035448     6.110054
H      3.922252     -1.594522     5.312448
H      3.591666      0.436845     6.695075
C      0.271276      1.029261    -1.416993
H      1.182751      1.406368    -1.900348
H     -0.192173      1.872442    -0.899681
C      0.688608     -0.066603    -0.443208
C      1.448943      0.163433     0.709319
H      0.940332     -0.994143    -0.952172
H      2.234060     -0.546092     0.938595
C      1.772275      1.513966     1.207291
O      2.870770      1.860829     1.564858
O      0.707401      2.362922     1.268973
H      1.056353      3.203894     1.597569
49
 -1042.02102754 -1041.65473400  4.22 4.30
C     -0.070411      1.327991     2.512650
C     -0.549678      2.433311     3.488319
H      0.999369      1.502880     2.328993
H      0.216355      2.790005     4.185692
C     -1.819099      2.136216     4.234676
C     -2.934383      2.848171     4.061321
H     -1.799194      1.322657     4.956390
H     -3.822452      2.620215     4.644820
C     -3.004459      3.966007     3.105839
C     -2.005078      4.211472     2.257621
H     -3.896712      4.585522     3.105231
H     -2.068977      5.037802     1.553843
C     -0.797130      3.328207     2.230017
C     -0.866582      2.010937     1.407844
H      0.105128      3.890984     1.972281
H     -1.906367      1.660932     1.467267
C     -0.303992     -0.163198     2.604762
H      0.265284     -0.614836     3.428196
H     -1.363271     -0.378471     2.783942
C      0.151655     -0.783782     1.294675
C     -0.279947     -2.052762     0.913583
H      1.148441     -0.469586     0.995708
H     -1.108893     -2.498051     1.461167
C      0.152444     -2.684356    -0.245084
C      1.099370     -2.103398    -1.078954
H     -0.371457     -3.577900    -0.569838
H      1.855935     -1.464666    -0.634577
C      1.491134     -2.673295    -2.382185
C      0.620082     -3.457755    -3.145457
C      2.764630     -2.409567    -2.894441
C      1.026390     -3.995900    -4.358354
H     -0.387161     -3.652100    -2.789869
C      3.171583     -2.946620    -4.106978
H      3.440209     -1.771675    -2.332529
C      2.306230     -3.748246    -4.841579
H      0.338640     -4.607427    -4.934140
H      4.169361     -2.738558    -4.480492
H      2.624046     -4.170147    -5.789671
C     -0.337161      1.784504     0.009960
H     -0.859048      2.420676    -0.717470
H      0.726536      2.025274    -0.051719
C     -0.588627      0.337729    -0.402028
C     -0.024772     -0.210907    -1.561773
H     -1.614472      0.023418    -0.220840
H     -0.666627     -0.815899    -2.193452
C      1.145636      0.423184    -2.202449
O      2.073676      0.904652    -1.599872
O      1.173282      0.407321    -3.558078
H      0.380535     -0.010970    -3.912976
