49
 -1042.02226567 -1041.65532000  0.00 0.00
C     -0.582853      1.739820     2.224882
C     -0.925944      3.175334     2.709889
H      0.389978      1.469414     2.650767
H     -2.002560      3.354376     2.628518
C     -0.403064      3.618584     4.039869
C      0.824879      4.125733     4.154378
H     -1.030578      3.490132     4.918621
H      1.215419      4.418370     5.124861
C      1.687654      4.301736     2.975226
C      1.238597      4.099759     1.734791
H      2.713245      4.622586     3.137153
H      1.901310      4.257101     0.887103
C     -0.180790      3.703580     1.442961
C     -0.386398      2.295050     0.816771
H     -0.682106      4.514204     0.902225
H     -1.363318      2.304856     0.319708
C     -1.542390      0.558368     2.272242
H     -1.518266      0.062055     3.247173
H     -2.563206      0.929677     2.121134
C     -1.210104     -0.438117     1.167615
C     -1.970116     -0.486309    -0.004953
H     -0.755388     -1.359784     1.511848
H     -2.710169      0.294141    -0.170793
C     -1.704621     -1.359354    -1.045407
C     -0.667714     -2.286006    -0.957725
H     -2.209167     -1.198918    -1.991727
H     -0.435451     -2.679392     0.027377
C     -0.291828     -3.214328    -2.044069
C      0.409276     -4.380677    -1.729078
C     -0.597126     -2.971806    -3.388115
C      0.767028     -5.294025    -2.711796
H      0.669962     -4.577897    -0.692468
C     -0.239120     -3.882369    -4.371194
H     -1.110412     -2.059893    -3.672732
C      0.439603     -5.049630    -4.038949
H      1.302242     -6.198255    -2.439386
H     -0.488550     -3.678166    -5.407896
H      0.715447     -5.760392    -4.811492
C      0.604698      1.546335    -0.063940
H      0.358161      1.664338    -1.118538
H      1.615531      1.947959     0.083311
C      0.702498      0.069342     0.290822
C      1.035783     -0.917537    -0.650965
H      1.139861     -0.110445     1.269672
H      1.665485     -1.731732    -0.306290
C      1.202698     -0.610359    -2.084626
O      0.552906      0.162222    -2.752197
O      2.205191     -1.342834    -2.629023
H      2.213786     -1.136849    -3.575553
49
 -1042.01756434 -1041.65058100  2.95 2.97
C      0.185298     -2.423912    -1.503246
C      0.248503     -3.079793    -2.910453
H     -0.725129     -2.781680    -1.008996
H      1.274996     -3.060656    -3.289662
C     -0.369223     -4.430469    -3.091715
C     -1.670724     -4.555076    -3.354106
H      0.256157     -5.312156    -2.973386
H     -2.124347     -5.536989    -3.454456
C     -2.530798     -3.371725    -3.513267
C     -2.031664     -2.134270    -3.542764
H     -3.600003     -3.529974    -3.626240
H     -2.697342     -1.285469    -3.680773
C     -0.559385     -1.853316    -3.441389
C     -0.092026     -1.081299    -2.174731
H     -0.203889     -1.425526    -4.385621
H      0.872090     -0.618319    -2.415007
C      1.351559     -2.375006    -0.524962
H      1.405534     -3.287012     0.077437
H      2.284801     -2.307065    -1.097050
C      1.236760     -1.154568     0.379400
C      2.023552     -0.021014     0.157081
H      0.946853     -1.374604     1.400561
H      2.620245      0.021857    -0.752081
C      1.943864      1.120553     0.934942
C      1.080158      1.189426     2.027244
H      2.447015      2.014692     0.583485
H      0.901089      0.266388     2.570413
C      0.896939      2.387621     2.871325
C      1.222690      3.678726     2.441184
C      0.361617      2.240114     4.153041
C      1.050326      4.771413     3.277525
H      1.617459      3.834485     1.443163
C      0.187619      3.332250     4.992457
H      0.086081      1.247861     4.500518
C      0.536025      4.604554     4.558411
H      1.316844      5.763385     2.926065
H     -0.220634      3.188046     5.987864
H      0.404049      5.461840     5.210858
C     -0.924516     -0.091807    -1.369688
H     -0.714050      0.929205    -1.682389
H     -1.992423     -0.273753    -1.545362
C     -0.730184     -0.253628     0.132321
C     -0.847983      0.800275     1.052034
H     -1.133046     -1.190413     0.508522
H     -1.311981      0.555178     2.002452
C     -1.149653      2.199951     0.684078
O     -1.986758      2.861939     1.247953
O     -0.407918      2.718546    -0.328850
H     -0.734449      3.621190    -0.454137
49
 -1042.01392171 -1041.64624700  5.24 5.69
C     -2.802843     -0.303358    -0.104730
C     -4.100802     -0.684797     0.660274
H     -2.702938     -0.978781    -0.962840
H     -4.443511      0.161379     1.263993
C     -5.230427     -1.284446    -0.116483
C     -5.280425     -2.597085    -0.345781
H     -5.995367     -0.624932    -0.519397
H     -6.085150     -3.025995    -0.936034
C     -4.251420     -3.502608     0.189508
C     -3.306454     -3.079311     1.031487
H     -4.287640     -4.547548    -0.106693
H     -2.574003     -3.782435     1.421257
C     -3.232351     -1.659487     1.516651
C     -1.985926     -0.843928     1.066744
H     -3.419539     -1.632967     2.596031
H     -1.838776     -0.032793     1.790205
C     -2.436790      1.123404    -0.488417
H     -2.903122      1.413522    -1.435337
H     -2.821079      1.800933     0.283574
C     -0.926561      1.284444    -0.577865
C     -0.226459      1.993673     0.401526
H     -0.534654      1.308635    -1.588344
H     -0.770190      2.331583     1.282257
C      1.149803      2.164531     0.375616
C      1.926204      1.616424    -0.651648
H      1.636662      2.627913     1.228844
H      1.470293      1.576733    -1.635896
C      3.399415      1.706169    -0.709966
C      4.196695      1.843048     0.431096
C      4.033971      1.631939    -1.952522
C      5.576170      1.937924     0.324240
H      3.742986      1.863393     1.415804
C      5.414577      1.727870    -2.061231
H      3.432328      1.508710    -2.849328
C      6.191618      1.886516    -0.921035
H      6.177482      2.047411     1.221318
H      5.884375      1.679332    -3.038531
H      7.271367      1.962727    -1.000543
C     -0.636773     -1.440052     0.698396
H      0.005142     -1.533633     1.575132
H     -0.782906     -2.456646     0.313573
C      0.054145     -0.690346    -0.439361
C      1.444227     -0.492639    -0.501854
H     -0.389862     -0.914368    -1.405340
H      1.919703     -0.669073    -1.461468
C      2.347329     -0.850026     0.631213
O      3.298735     -1.567380     0.493376
O      2.052881     -0.326136     1.846341
H      1.339865      0.322556     1.752187
