49
 -1042.02870757 -1041.66247000  0.00 0.00
C     -0.568081      0.381583     3.381064
C      0.433351      1.530964     3.692581
H     -0.996242      0.069629     4.339877
H      0.204085      2.068203     4.620386
C      0.681606      2.540380     2.609232
C      1.886247      2.716736     2.062839
H     -0.151849      3.169454     2.305464
H      2.040009      3.491110     1.316101
C      3.037197      1.880838     2.440354
C      2.891191      0.830487     3.248844
H      4.009969      2.130215     2.026291
H      3.747248      0.209156     3.501061
C      1.553573      0.464096     3.813923
C      0.628870     -0.551417     3.058470
H      1.667313      0.143216     4.853462
H      0.563173     -1.533482     3.537051
C     -1.728955      0.562440     2.404318
H     -2.218113      1.521106     2.626776
H     -2.480302     -0.209807     2.608244
C     -1.394867      0.514890     0.933181
C     -2.396433      0.289055    -0.004482
H     -0.541639      1.113819     0.631233
H     -3.391578      0.030969     0.352960
C     -2.138032      0.127988    -1.360448
C     -0.844545      0.166237    -1.860778
H     -2.949427     -0.209060    -1.997397
H     -0.112053      0.761365    -1.324941
C     -0.479743     -0.096580    -3.262539
C      0.742319      0.380829    -3.744162
C     -1.299517     -0.811546    -4.142498
C      1.120402      0.186913    -5.065824
H      1.401222      0.923350    -3.071156
C     -0.923403     -1.009052    -5.461179
H     -2.234894     -1.234351    -3.791973
C      0.285179     -0.506323    -5.932010
H      2.068855      0.578997    -5.419336
H     -1.575909     -1.564070    -6.127890
H      0.574982     -0.660623    -6.966457
C      0.958617     -0.736831     1.580051
H      1.780154     -1.458864     1.500466
H      1.344830      0.190632     1.148078
C     -0.206234     -1.231183     0.743502
C      0.024898     -1.528571    -0.595533
H     -0.959557     -1.823968     1.253361
H      1.000055     -1.325322    -1.024534
C     -0.685255     -2.622560    -1.275296
O     -0.272272     -3.216881    -2.242751
O     -1.878417     -2.947264    -0.705328
H     -2.218029     -3.696903    -1.212656
49
 -1042.02831280 -1041.66215200  0.25 0.20
C     -0.264934      2.566594     1.592513
C     -0.249801      4.130713     1.554167
H     -0.250229      2.143497     2.601563
H      0.109785      4.513524     2.514216
C     -1.481382      4.877745     1.143209
C     -1.674138      5.264293    -0.118136
H     -2.233148      5.086456     1.900787
H     -2.577895      5.796810    -0.400322
C     -0.685841      4.965658    -1.167252
C      0.485982      4.394690    -0.885796
H     -0.935975      5.222034    -2.193125
H      1.193460      4.183094    -1.684526
C      0.909613      4.072812     0.518877
C      1.107949      2.570712     0.875061
H      1.775575      4.695880     0.769090
H      1.913668      2.481709     1.610858
C     -1.376687      1.908131     0.772059
H     -1.531247      2.484695    -0.143475
H     -2.312310      1.977338     1.338352
C     -1.121207      0.463089     0.377769
C     -1.521075     -0.622302     1.154705
H     -1.097397      0.310060    -0.695678
H     -1.872697     -0.443210     2.169240
C     -1.293904     -1.936495     0.762363
C     -0.720085     -2.244739    -0.463064
H     -1.436384     -2.721165     1.497292
H     -0.870021     -1.558392    -1.290174
C     -0.376717     -3.613526    -0.885775
C     -0.144253     -4.648952     0.027212
C     -0.264429     -3.899240    -2.249221
C      0.158829     -5.927452    -0.414661
H     -0.181088     -4.450019     1.092973
C      0.031794     -5.180690    -2.693102
H     -0.422854     -3.103103    -2.971898
C      0.241603     -6.202215    -1.776080
H      0.335379     -6.717586     0.308632
H      0.099819     -5.381224    -3.757788
H      0.475198     -7.205500    -2.117832
C      1.300914      1.501768    -0.191833
H      2.342953      1.490541    -0.531410
H      0.686783      1.710119    -1.074138
C      0.952787      0.149857     0.415611
C      1.261277     -1.050586    -0.215863
H      1.040743      0.111366     1.498739
H      1.513660     -1.062774    -1.271169
C      1.827667     -2.136321     0.596846
O      1.671279     -2.298290     1.786314
O      2.588188     -2.981766    -0.142775
H      2.870794     -3.687637     0.456638
49
 -1042.02506494 -1041.65956400  2.29 1.82
C      1.131546      2.716198     1.875869
C      2.663744      2.526817     1.679890
H      1.003956      3.547134     2.577946
H      3.243038      3.436172     1.878379
C      3.125434      1.946435     0.374502
C      3.781479      0.786553     0.303133
H      2.949020      2.528650    -0.526973
H      4.144882      0.421761    -0.653823
C      4.033035     -0.035194     1.497926
C      3.503938      0.285012     2.679264
H      4.647233     -0.924437     1.388789
H      3.680571     -0.344533     3.548151
C      2.641565      1.498555     2.842013
C      1.086803      1.389179     2.677276
H      2.869703      1.988614     3.792960
H      0.532958      1.460260     3.618441
C      0.189809      2.967805     0.699976
H      0.642644      3.731540     0.052826
H     -0.736153      3.412263     1.083645
C     -0.180086      1.771489    -0.144957
C     -1.293120      1.830622    -0.979979
H      0.654615      1.152095    -0.458623
H     -1.959317      2.686044    -0.893215
C     -1.737553      0.743907    -1.724376
C     -1.098494     -0.482909    -1.667595
H     -2.707128      0.819997    -2.204643
H     -0.041663     -0.501677    -1.421692
C     -1.580365     -1.708095    -2.325443
C     -0.678145     -2.748125    -2.574738
C     -2.915308     -1.886234    -2.710340
C     -1.080559     -3.908297    -3.222266
H      0.358744     -2.635453    -2.268593
C     -3.318183     -3.045941    -3.352285
H     -3.651072     -1.122581    -2.482811
C     -2.403023     -4.059773    -3.618502
H     -0.359376     -4.695574    -3.418265
H     -4.357030     -3.164346    -3.644362
H     -2.722738     -4.965121    -4.124317
C      0.609432      0.160745     1.907336
H      0.559922     -0.682951     2.605800
H      1.342256     -0.129847     1.149095
C     -0.748952      0.336938     1.252947
C     -1.331614     -0.770235     0.641330
H     -1.443904      1.027408     1.722833
H     -0.755474     -1.688619     0.558172
C     -2.803535     -0.868617     0.603762
O     -3.553518      0.063493     0.740406
O     -3.320549     -2.112071     0.409707
H     -2.619464     -2.755064     0.255425
49
 -1042.02536998 -1041.65928200  2.09 2.00
C     -0.667733      0.210087     2.912659
C     -0.151679      0.542293     4.351956
H     -1.653176     -0.265150     2.888778
H     -0.704056     -0.056686     5.082504
C     -0.090152      1.966741     4.811216
C      1.024353      2.689261     4.695239
H     -0.989534      2.410967     5.231210
H      1.048087      3.724115     5.024613
C      2.244614      2.119642     4.101080
C      2.322448      0.834304     3.754237
H      3.093804      2.779551     3.945827
H      3.237254      0.444438     3.313326
C      1.202800     -0.136446     3.999614
C      0.522752     -0.767643     2.750119
H      1.543978     -0.879249     4.729363
H      0.203741     -1.785867     2.995237
C     -0.635049      1.379486     1.925444
H      0.258691      1.979276     2.115171
H     -1.490937      2.031364     2.134089
C     -0.633885      0.986646     0.458965
C     -1.794767      0.832428    -0.294314
H      0.251117      1.317597    -0.073610
H     -2.757713      0.827716     0.213706
C     -1.761559      0.481321    -1.638853
C     -0.564526      0.326889    -2.326503
H     -2.692425      0.187635    -2.112395
H      0.287588      0.915945    -2.002724
C     -0.468925     -0.125808    -3.724400
C      0.680212      0.174971    -4.460638
C     -1.480504     -0.858788    -4.354630
C      0.803869     -0.206106    -5.789503
H      1.485610      0.726250    -3.982679
C     -1.357466     -1.245056    -5.679896
H     -2.371922     -1.138563    -3.803358
C     -0.218151     -0.915903    -6.406554
H      1.700800      0.051812    -6.343895
H     -2.155871     -1.810081    -6.150725
H     -0.126662     -1.216634    -7.445364
C      1.191172     -0.782129     1.382636
H      1.918261     -1.600390     1.325389
H      1.748593      0.143267     1.204493
C      0.119054     -0.989629     0.322086
C      0.433119     -1.275599    -1.001779
H     -0.779868     -1.472854     0.694793
H      1.440884     -1.091426    -1.360349
C     -0.226800     -2.381013    -1.714886
O      0.300046     -3.047726    -2.573380
O     -1.500251     -2.632235    -1.307695
H     -1.789232     -3.403023    -1.815622
49
 -1042.02379091 -1041.65728000  3.09 3.26
C      0.547936      3.142495    -1.274141
C      0.352515      2.852875    -2.790052
H      0.868575      4.186688    -1.192612
H      0.130267      3.749898    -3.379850
C     -0.632514      1.782597    -3.162994
C     -0.268826      0.676185    -3.814561
H     -1.679450      1.955239    -2.924668
H     -1.016577     -0.054063    -4.112094
C      1.137832      0.402226    -4.149503
C      2.118985      1.186030    -3.701000
H      1.359665     -0.469665    -4.758191
H      3.155326      0.958621    -3.939189
C      1.829760      2.381374    -2.846392
C      1.817224      2.249203    -1.284460
H      2.486342      3.208088    -3.132452
H      2.681614      2.706350    -0.792764
C     -0.576698      2.935909    -0.259797
H     -1.498889      3.362203    -0.679456
H     -0.355011      3.529222     0.635395
C     -0.851062      1.517676     0.171664
C     -1.573892      1.257719     1.331023
H     -0.906690      0.789428    -0.630777
H     -1.871277      2.096992     1.959051
C     -1.757724     -0.031196     1.829188
C     -1.204416     -1.142770     1.205935
H     -2.210040     -0.146309     2.809738
H     -1.072729     -1.106848     0.129526
C     -1.271062     -2.506141     1.757667
C     -1.261001     -3.598980     0.886565
C     -1.329324     -2.755831     3.132705
C     -1.350520     -4.898549     1.366593
H     -1.197042     -3.424588    -0.184366
C     -1.413397     -4.053000     3.613626
H     -1.279090     -1.932394     3.837411
C     -1.432389     -5.129886     2.733698
H     -1.357137     -5.732106     0.671311
H     -1.457196     -4.227088     4.684149
H     -1.501614     -6.144146     3.113714
C      1.647289      0.822264    -0.770114
H      2.627760      0.331696    -0.793556
H      1.014982      0.237464    -1.443973
C      1.093393      0.729845     0.637679
C      0.978265     -0.525397     1.226440
H      1.312415      1.572920     1.290370
H      1.232773     -1.398717     0.635051
C      1.208842     -0.731294     2.678401
O      1.795009     -1.684012     3.114958
O      0.751027      0.228849     3.522119
H      0.177771      0.842929     3.042985
49
 -1042.02118903 -1041.65622000  4.72 3.92
C     -3.031562      0.210478    -0.016001
C     -4.322406      0.282368     0.865333
H     -3.226599      0.071641    -1.083705
H     -5.162192     -0.151301     0.313790
C     -4.738277      1.586887     1.472856
C     -4.377399      1.925903     2.710757
H     -5.334005      2.268388     0.870122
H     -4.679959      2.880304     3.132127
C     -3.545042      1.033928     3.534256
C     -3.207325     -0.188971     3.123321
H     -3.203926      1.399383     4.499029
H     -2.587668     -0.822702     3.753941
C     -3.698230     -0.768453     1.827466
C     -2.630500     -1.081310     0.739041
H     -4.348134     -1.620818     2.054946
H     -2.948109     -1.960412     0.169299
C     -2.044050      1.362344     0.184434
H     -2.036641      1.643815     1.240466
H     -2.415461      2.236612    -0.361684
C     -0.609954      1.070490    -0.228799
C     -0.112465      1.351748    -1.500736
H      0.093035      1.148001     0.593556
H     -0.811713      1.609882    -2.293848
C      1.212860      1.111778    -1.847342
C      2.136677      0.651313    -0.922899
H      1.481322      1.147450    -2.897281
H      1.983807      0.892794     0.124018
C      3.524837      0.287878    -1.251224
C      4.485185      0.275932    -0.233901
C      3.929856     -0.057404    -2.546236
C      5.812840     -0.028018    -0.502642
H      4.186113      0.526371     0.780754
C      5.253946     -0.364783    -2.813987
H      3.199646     -0.112154    -3.345913
C      6.203377     -0.345180    -1.796930
H      6.543421     -0.016393     0.300167
H      5.549406     -0.628590    -3.824691
H      7.239701     -0.584234    -2.013103
C     -1.150312     -1.221304     1.067629
H     -0.940813     -2.225888     1.451957
H     -0.852564     -0.516883     1.851282
C     -0.357091     -0.990966    -0.212634
C      0.992461     -1.315851    -0.315729
H     -0.918441     -1.179008    -1.124149
H      1.570833     -1.467047     0.593571
C      1.460226     -1.983266    -1.548243
O      0.915127     -1.911202    -2.619202
O      2.584463     -2.739680    -1.425353
H      2.931692     -2.693873    -0.527887
49
 -1042.01991501 -1041.65358100  5.52 5.58
C     -2.121741      0.193059    -2.095399
C     -3.492458      0.842025    -2.483547
H     -1.800078     -0.607538    -2.768481
H     -4.039314      0.162843    -3.144733
C     -3.529659      2.230547    -3.043850
C     -3.715792      3.293069    -2.260263
H     -3.383574      2.357907    -4.113864
H     -3.730268      4.294180    -2.681625
C     -3.883571      3.147585    -0.805171
C     -3.969086      1.950043    -0.224596
H     -3.934379      4.050980    -0.203510
H     -4.089450      1.875850     0.853916
C     -3.965685      0.670857    -1.011893
C     -2.774221     -0.302047    -0.779617
H     -4.945345      0.193080    -0.899352
H     -3.128148     -1.330012    -0.910393
C     -0.970270      1.183321    -1.890173
H     -1.363415      2.097525    -1.438423
H     -0.585053      1.468537    -2.875585
C      0.167311      0.687903    -1.017759
C      1.335304      0.117377    -1.515718
H      0.260162      1.236616    -0.087180
H      1.399727     -0.123804    -2.575638
C      2.358887     -0.312018    -0.672079
C      2.282649     -0.155868     0.710056
H      3.181840     -0.879102    -1.097622
H      1.721492      0.691831     1.088582
C      3.301150     -0.651382     1.652008
C      4.118940     -1.751110     1.372668
C      3.457134     -0.008834     2.883617
C      5.080639     -2.167578     2.280149
H      3.991104     -2.305432     0.449253
C      4.423341     -0.420679     3.790756
H      2.817706      0.835817     3.126331
C      5.243073     -1.500908     3.489436
H      5.705995     -3.022964     2.044604
H      4.536228      0.102828     4.734936
H      5.999389     -1.827736     4.195921
C     -1.903787     -0.244290     0.468590
H     -2.396589     -0.760853     1.300202
H     -1.745329      0.789211     0.793615
C     -0.581888     -0.929510     0.159576
C      0.343475     -1.261782     1.143710
H     -0.657161     -1.625515    -0.674301
H      0.224544     -0.840585     2.136941
C      0.984853     -2.602751     1.165830
O      1.164228     -3.216246     2.181704
O      1.336933     -3.145600    -0.027584
H      1.270163     -2.478848    -0.724043
