49
 -1042.02998159 -1041.66406600  0.00 0.00
C      0.843955      2.563202    -1.385635
C      1.151253      3.194372    -2.783045
H      1.115202      3.199910    -0.537669
H      1.880092      4.002093    -2.664992
C      0.022892      3.657231    -3.652819
C     -0.502061      2.870057    -4.591959
H     -0.376669      4.655301    -3.488789
H     -1.326812      3.219078    -5.206765
C      0.000489      1.504106    -4.811712
C      1.063439      1.033794    -4.158106
H     -0.522704      0.875824    -5.527400
H      1.407036      0.017726    -4.339034
C      1.858665      1.873868    -3.200422
C      1.860983      1.438619    -1.704724
H      2.864678      2.007771    -3.613386
H      2.835148      1.676987    -1.265180
C     -0.583015      2.043028    -1.205995
H     -0.910237      1.572757    -2.136603
H     -1.249115      2.898242    -1.044210
C     -0.757768      1.037495    -0.080093
C     -1.007288      1.422926     1.236446
H     -1.157004      0.083791    -0.406714
H     -0.904741      2.473109     1.504988
C     -1.171923      0.493768     2.259590
C     -1.210511     -0.868933     1.996389
H     -1.140100      0.843332     3.287108
H     -1.607913     -1.192099     1.038975
C     -1.226848     -1.907108     3.037924
C     -1.791688     -3.154198     2.753275
C     -0.679159     -1.703418     4.309339
C     -1.845342     -4.151322     3.716110
H     -2.199115     -3.336712     1.762579
C     -0.729386     -2.701046     5.271761
H     -0.204733     -0.756673     4.548659
C     -1.318067     -3.927403     4.982196
H     -2.300704     -5.107563     3.477688
H     -0.303240     -2.522988     6.254169
H     -1.359210     -4.705727     5.737394
C      1.451564      0.036618    -1.275808
H      2.284896     -0.660919    -1.421101
H      0.625319     -0.347031    -1.876966
C      1.080820      0.073686     0.199571
C      0.873760     -1.062259     0.983088
H      1.567276      0.885781     0.735272
H      1.280566     -1.098428     1.984842
C      0.570426     -2.348038     0.350832
O     -0.080097     -2.494681    -0.664389
O      1.057342     -3.405823     1.042581
H      0.769660     -4.202097     0.572741
49
 -1042.03078907 -1041.66399600  -0.51 0.04
C      0.820906     -1.012143     3.260722
C      2.130394     -0.189548     3.427211
H      0.736125     -1.646337     4.149913
H      2.429720     -0.054427     4.473227
C      2.197978      1.142715     2.738242
C      3.099886      1.408329     1.791222
H      1.508492      1.917007     3.066707
H      3.152172      2.399224     1.348148
C      4.042050      0.384723     1.311075
C      3.944845     -0.883969     1.710176
H      4.808309      0.685166     0.602197
H      4.632886     -1.633633     1.326578
C      2.881634     -1.317021     2.671360
C      1.501794     -1.837733     2.138043
H      3.294120     -2.043688     3.377293
H      1.364196     -2.919348     2.236432
C     -0.536447     -0.341718     3.054210
H     -0.610774      0.504986     3.751009
H     -1.319505     -1.046157     3.358933
C     -0.871895      0.147165     1.664445
C     -2.205580      0.328260     1.312860
H     -0.123032      0.768049     1.183523
H     -2.970632      0.001922     2.015475
C     -2.613428      0.673589     0.030244
C     -1.700001      0.880032    -0.995534
H     -3.673271      0.627116    -0.200471
H     -0.707835      1.241438    -0.742864
C     -2.099622      1.126589    -2.392284
C     -1.262051      1.873999    -3.225797
C     -3.288820      0.621974    -2.929709
C     -1.617374      2.141831    -4.540149
H     -0.321507      2.249900    -2.833712
C     -3.643410      0.887253    -4.243805
H     -3.942095      0.008139    -2.317467
C     -2.812392      1.653948    -5.053870
H     -0.958106      2.734995    -5.166342
H     -4.571639      0.489200    -4.641708
H     -3.092050      1.863301    -6.081388
C      1.187270     -1.408068     0.708685
H      1.722274     -2.078254     0.026061
H      1.593125     -0.418688     0.498806
C     -0.288712     -1.434449     0.373327
C     -0.751415     -1.200230    -0.924835
H     -0.889207     -2.133978     0.949602
H     -1.679615     -1.663414    -1.236099
C      0.174754     -0.866066    -2.017678
O      1.186856     -0.203602    -1.934442
O     -0.243869     -1.370261    -3.205059
H      0.384497     -1.058112    -3.872509
49
 -1042.02605186 -1041.66012700  2.47 2.47
C     -0.935752      1.830800     2.181376
C     -0.448811      2.762118     3.339605
H     -2.015447      1.651349     2.175837
H     -1.212112      2.798013     4.122974
C      0.019341      4.150735     3.028718
C      1.309153      4.424591     2.831782
H     -0.726197      4.938420     2.948526
H      1.629048      5.435883     2.597317
C      2.333223      3.369869     2.904386
C      2.032199      2.123360     3.270637
H      3.355970      3.631643     2.647176
H      2.811209      1.365142     3.309969
C      0.648632      1.717524     3.690684
C     -0.092312      0.682930     2.792871
H      0.679976      1.428864     4.747229
H     -0.722413      0.047462     3.423764
C     -0.473623      2.237929     0.780340
H      0.557337      2.596611     0.836266
H     -1.076898      3.091256     0.449697
C     -0.538575      1.131616    -0.258358
C     -1.688610      0.854797    -0.993456
H      0.415299      0.913646    -0.725660
H     -2.622862      1.337395    -0.710882
C     -1.737108     -0.171382    -1.932433
C     -0.608131     -0.912350    -2.261273
H     -2.707930     -0.479803    -2.308492
H      0.356631     -0.416444    -2.220087
C     -0.639444     -2.104331    -3.123759
C      0.500659     -2.460014    -3.850139
C     -1.771633     -2.919675    -3.232065
C      0.501412     -3.566601    -4.686191
H      1.399059     -1.856220    -3.756221
C     -1.772072     -4.028268    -4.065757
H     -2.661636     -2.688556    -2.654978
C     -0.637770     -4.353624    -4.801688
H      1.394817     -3.815869    -5.250132
H     -2.661710     -4.645912    -4.139617
H     -0.640186     -5.219613    -5.455803
C      0.653371     -0.190367     1.792774
H      1.118496     -1.041956     2.303390
H      1.462930      0.364041     1.315016
C     -0.349309     -0.701240     0.768346
C     -0.112673     -1.717258    -0.159278
H     -1.366265     -0.707273     1.154174
H     -0.888141     -2.452201    -0.329417
C      1.231453     -2.207860    -0.483317
O      1.519544     -3.358472    -0.706498
O      2.169702     -1.215908    -0.552673
H      3.008161     -1.654801    -0.754679
49
 -1042.02691317 -1041.65972300  1.93 2.73
C     -0.224737      3.437503    -0.504155
C     -0.795867      3.414842    -1.950602
H     -0.013459      4.486527    -0.269586
H     -1.272932      4.357014    -2.245159
C     -1.716635      2.284165    -2.308657
C     -1.423421      1.405491    -3.269441
H     -2.668281      2.222960    -1.785763
H     -2.135282      0.628947    -3.536269
C     -0.142230      1.448201    -3.992206
C      0.829246      2.285327    -3.625868
H      0.001447      0.762513    -4.822359
H      1.779265      2.288224    -4.155048
C      0.652794      3.223345    -2.472169
C      1.083714      2.788127    -1.028724
H      1.106426      4.190296    -2.708364
H      1.995976      3.274584    -0.668789
C     -0.998656      2.859291     0.681077
H     -2.048322      3.172150     0.588915
H     -0.628405      3.330808     1.599112
C     -0.957221      1.363310     0.882622
C     -1.212458      0.834706     2.142378
H     -1.192143      0.759430     0.012350
H     -1.335809      1.526028     2.974467
C     -1.075443     -0.515860     2.442939
C     -0.674675     -1.441826     1.487916
H     -1.128200     -0.815850     3.485120
H     -0.929186     -1.255479     0.449731
C     -0.401457     -2.854688     1.803795
C      0.093310     -3.259131     3.048072
C     -0.618608     -3.834159     0.830412
C      0.324856     -4.599272     3.319765
H      0.306912     -2.517814     3.811774
C     -0.390492     -5.175786     1.101312
H     -0.981881     -3.536310    -0.149246
C      0.078122     -5.565116     2.349778
H      0.706028     -4.892900     4.292828
H     -0.580648     -5.920596     0.334754
H      0.256919     -6.613819     2.564477
C      1.201048      1.278112    -0.843434
H      2.166682      0.958722    -1.253096
H      0.450903      0.760490    -1.441217
C      1.101335      0.839639     0.601984
C      1.329010     -0.475710     1.014051
H      1.375472      1.594496     1.334838
H      1.686515     -0.632281     2.024663
C      1.764644     -1.556301     0.112647
O      2.611140     -2.368399     0.398229
O      1.126128     -1.599875    -1.090841
H      1.518555     -2.344073    -1.569010
49
 -1042.02441895 -1041.65707100  3.49 4.39
C      0.652103     -1.345887     3.326678
C      2.048310     -0.632587     3.348585
H      0.483287     -1.933929     4.233873
H      2.641814     -1.013791     4.185878
C      2.123485      0.863903     3.356233
C      2.449683      1.562011     2.268836
H      1.912693      1.379562     4.290592
H      2.510813      2.645963     2.309840
C      2.691205      0.901194     0.975616
C      2.630717     -0.424635     0.844115
H      2.892255      1.529363     0.111450
H      2.767018     -0.881280    -0.131875
C      2.434256     -1.335543     2.021903
C      1.142052     -2.211805     2.128262
H      3.338875     -1.949800     2.103514
H      1.445594     -3.191911     2.506574
C     -0.574587     -0.470519     3.095536
H     -0.574875      0.339903     3.835121
H     -1.477733     -1.059856     3.295476
C     -0.660674      0.110468     1.706441
C     -1.738303      0.908985     1.336226
H      0.289262      0.280119     1.216181
H     -2.561654      1.030879     2.038253
C     -1.914259      1.368125     0.036612
C     -1.003988      1.078690    -0.971908
H     -2.858348      1.840337    -0.218029
H      0.034523      0.904536    -0.705770
C     -1.220050      1.438529    -2.383125
C     -2.498526      1.599610    -2.929857
C     -0.115984      1.611491    -3.224074
C     -2.662887      1.955286    -4.259680
H     -3.376719      1.436973    -2.313029
C     -0.279640      1.968601    -4.554539
H      0.883193      1.463936    -2.824553
C     -1.554289      2.147603    -5.077694
H     -3.662775      2.078832    -4.663935
H      0.592214      2.108754    -5.186088
H     -1.684417      2.428320    -6.117878
C      0.286311     -2.475024     0.875255
H     -0.144736     -3.478822     0.975391
H      0.962817     -2.518506     0.021778
C     -0.910011     -1.595097     0.526224
C     -1.197035     -1.233382    -0.795411
H     -1.797006     -1.829299     1.107294
H     -2.237351     -1.155828    -1.087858
C     -0.269304     -1.441269    -1.913272
O      0.943494     -1.384947    -1.879204
O     -0.927488     -1.681020    -3.073569
H     -0.253333     -1.737235    -3.766387
