49
 -1042.01345517 -1041.65115600  0.00 0.00
C      1.925356      0.506393    -1.404282
C      3.448472      0.693567    -1.182955
H      1.805582      0.473526    -2.495687
H      3.930280      1.204173    -2.024163
C      4.096757      1.296263     0.044068
C      5.342761      0.784837     0.381542
H      3.861912      2.330837     0.273923
H      6.037637      1.380772     0.966205
C      5.556706     -0.594006     0.259904
C      4.521475     -1.396444    -0.193648
H      6.429859     -1.038290     0.728148
H      4.633532     -2.477879    -0.151217
C      3.578791     -0.852882    -1.219269
C      2.050762     -0.983895    -0.971253
H      3.857437     -1.212817    -2.214176
H      1.522996     -1.669802    -1.638564
C      0.867911      1.478028    -0.895078
H      0.933003      1.645122     0.174286
H      1.052388      2.445418    -1.383255
C     -0.521939      1.015308    -1.232149
C     -1.485204      0.810268    -0.333126
H     -0.735343      0.827131    -2.285949
H     -1.271428      0.985649     0.720207
C     -2.827971      0.354139    -0.674205
C     -3.784030      0.138108     0.234773
H     -3.024314      0.189436    -1.731248
H     -3.540530      0.312564     1.282196
C     -5.159024     -0.320696    -0.017892
C     -6.014048     -0.515643     1.070346
C     -5.657713     -0.572477    -1.300040
C     -7.320994     -0.947750     0.891035
H     -5.642571     -0.324779     2.073343
C     -6.963262     -1.003372    -1.482602
H     -5.022156     -0.429983    -2.167032
C     -7.801569     -1.193563    -0.388823
H     -7.964434     -1.092353     1.753238
H     -7.330824     -1.192446    -2.486456
H     -8.822636     -1.531170    -0.535741
C      1.769166     -1.375788     0.492408
H      0.862684     -0.883897     0.849654
H      1.594411     -2.455004     0.533472
C      2.953054     -1.036707     1.360324
C      3.183411      0.250454     1.830962
H      3.462590     -1.844817     1.870631
H      4.059287      0.386797     2.459392
C      2.115806      1.189543     2.231830
O      0.923030      0.984013     2.278293
O      2.631412      2.367159     2.671512
H      1.881529      2.896956     2.977123
49
 -1042.01185815 -1041.65046300  1.00 0.43
C      1.526079     -0.972103    -0.790886
C      2.936057     -1.161400    -1.402714
H      1.019344     -1.933297    -0.942579
H      2.943252     -1.899964    -2.211970
C      3.830391     -0.045650    -1.896168
C      5.195247     -0.255694    -1.754517
H      3.463907      0.560234    -2.719011
H      5.898579      0.266034    -2.397119
C      5.660790     -0.868723    -0.584510
C      4.746143     -1.238832     0.389415
H      6.721931     -0.838431    -0.356172
H      5.112861     -1.579549     1.355498
C      3.392687     -1.718588    -0.028833
C      2.139786     -1.086070     0.640064
H      3.354801     -2.811493    -0.001507
H      1.567660     -1.756039     1.286700
C      0.544871      0.089659    -1.276650
H      1.017270      1.065042    -1.361768
H      0.219209     -0.193079    -2.284210
C     -0.654757      0.208439    -0.383745
C     -1.901395     -0.101321    -0.739668
H     -0.475459      0.572877     0.627125
H     -2.094654     -0.465246    -1.748851
C     -3.054169      0.019884     0.146433
C     -4.301926     -0.282403    -0.225203
H     -2.848669      0.379463     1.152018
H     -4.459067     -0.636032    -1.243627
C     -5.518120     -0.189818     0.597752
C     -5.506975      0.218853     1.935150
C     -6.746702     -0.525747     0.022519
C     -6.683365      0.288136     2.666463
H     -4.570908      0.484958     2.413606
C     -7.925958     -0.456533     0.751599
H     -6.773176     -0.845214    -1.015602
C     -7.898639     -0.048632     2.079123
H     -6.652690      0.607219     3.703678
H     -8.867432     -0.721999     0.281002
H     -8.817202      0.007148     2.654671
C      2.536549      0.171034     1.437730
H      1.747269      0.923228     1.395419
H      2.662493     -0.115446     2.486161
C      3.836317      0.726900     0.918474
C      3.891946      1.499633    -0.234897
H      4.677235      0.792460     1.597913
H      4.867434      1.880546    -0.523294
C      2.826849      2.440434    -0.639497
O      1.807831      2.713062    -0.045357
O      3.156290      3.094990    -1.784946
H      2.450183      3.737071    -1.945210
49
 -1042.01291685 -1041.65026600  0.34 0.56
C      2.188214      1.525007    -0.911644
C      2.282924      1.275196     0.617049
H      2.133825      2.618338    -0.998090
H      1.819504      2.084692     1.191401
C      1.869550      0.021740     1.354739
C      2.612191     -0.280038     2.489328
H      0.822595     -0.259009     1.301669
H      2.182093     -0.891696     3.277000
C      3.998918     -0.082662     2.454786
C      4.580760      0.410095     1.297380
H      4.615271     -0.524256     3.232081
H      5.665599      0.422776     1.214443
C      3.824017      1.402970     0.475296
C      3.696226      1.173093    -1.055388
H      4.167661      2.417155     0.700395
H      4.251028      1.872241    -1.686691
C      1.101497      0.968307    -1.825818
H      1.197487      1.478570    -2.794428
H      1.228516     -0.090458    -2.026896
C     -0.275084      1.218412    -1.279395
C     -1.225222      0.290247    -1.165442
H     -0.498091      2.236585    -0.954131
H     -1.011012     -0.728252    -1.488607
C     -2.560446      0.551694    -0.639225
C     -3.515657     -0.379732    -0.559875
H     -2.752508      1.569277    -0.306836
H     -3.279717     -1.383917    -0.910066
C     -4.883418     -0.204184    -0.046632
C     -5.756622     -1.295048    -0.072185
C     -5.356746      1.006187     0.469807
C     -7.058150     -1.186654     0.398292
H     -5.404867     -2.242889    -0.470095
C     -6.656252      1.117407     0.941456
H     -4.705311      1.872317     0.506838
C     -7.513749      0.022476     0.908038
H     -7.716830     -2.048868     0.366268
H     -7.003731      2.065962     1.339022
H     -8.530159      0.113568     1.277817
C      4.085366     -0.274675    -1.419564
H      3.447319     -0.656902    -2.218640
H      5.112365     -0.271067    -1.796640
C      4.017183     -1.160458    -0.202286
C      2.831574     -1.704876     0.274181
H      4.935000     -1.623259     0.139182
H      2.916418     -2.335164     1.154886
C      1.703357     -2.157003    -0.562684
O      1.607228     -2.135411    -1.769698
O      0.737381     -2.738532     0.197038
H      0.072503     -3.079301    -0.417439
49
 -1042.00939982 -1041.64895200  2.54 1.38
C      1.571495     -1.430371    -0.207831
C      3.103190     -1.605286    -0.348117
H      1.188840     -2.435503     0.009337
H      3.379325     -2.607358    -0.694609
C      4.017167     -0.670800    -1.109210
C      5.303457     -0.536232    -0.605639
H      3.845215     -0.564204    -2.175763
H      6.115666     -0.223929    -1.255718
C      5.476557     -0.479036     0.782984
C      4.360729     -0.553016     1.602426
H      6.431081     -0.153545     1.185514
H      4.475240     -0.364027     2.667825
C      3.207873     -1.410831     1.187142
C      1.780426     -0.794005     1.203304
H      3.239486     -2.367544     1.716537
H      1.100935     -1.211581     1.950456
C      0.695106     -0.894788    -1.335878
H      1.126940     -0.008622    -1.794598
H      0.655043     -1.663303    -2.116319
C     -0.698872     -0.578294    -0.880959
C     -1.786427     -1.236027    -1.281565
H     -0.796699      0.239022    -0.169730
H     -1.657329     -2.066684    -1.974274
C     -3.173591     -0.973374    -0.871726
C     -3.607458      0.093604    -0.195290
H     -3.889140     -1.732727    -1.177506
H     -2.892606      0.869073     0.070954
C     -4.991716      0.355198     0.230455
C     -5.293919      1.588753     0.813441
C     -6.026157     -0.574296     0.083280
C     -6.583327      1.892337     1.228896
H     -4.501283      2.321225     0.939489
C     -7.314965     -0.274100     0.497398
H     -5.823775     -1.546851    -0.351735
C     -7.601266      0.960958     1.070399
H     -6.792571      2.858623     1.676955
H     -8.103597     -1.010105     0.375198
H     -8.611527      1.192225     1.392854
C      1.861747      0.732589     1.392307
H      1.059244      1.235841     0.850988
H      1.728894      0.951491     2.456091
C      3.208739      1.238484     0.948484
C      3.510719      1.425177    -0.394724
H      3.831605      1.750944     1.671331
H      4.495651      1.819792    -0.626948
C      2.520736      1.874124    -1.395631
O      1.363975      2.181624    -1.213885
O      3.088370      2.011192    -2.623886
H      2.402774      2.374160    -3.202500
49
 -1042.01049440 -1041.64870500  1.86 1.54
C      1.793812      1.170272     1.421960
C      1.874960     -0.378489     1.353265
H      1.495391      1.371058     2.459450
H      1.214505     -0.852698     2.087414
C      1.725616     -1.239572     0.119645
C      2.468419     -2.413437     0.111792
H      0.773127     -1.198817    -0.398262
H      2.155064     -3.253682    -0.500830
C      3.774800     -2.383780     0.617680
C      4.277955     -1.192394     1.115139
H      4.441859     -3.214599     0.408175
H      5.334277     -1.128151     1.368142
C      3.351158     -0.255064     1.819757
C      3.347143      1.244834     1.417014
H      3.444008     -0.378238     2.903085
H      3.755289      1.935495     2.159705
C      0.907141      2.047270     0.542263
H      0.889343      3.048494     0.994693
H      1.309785      2.172805    -0.457707
C     -0.499238      1.526439     0.457639
C     -1.165218      1.359581    -0.684562
H     -0.983691      1.278727     1.402657
H     -0.662685      1.642806    -1.607887
C     -2.536439      0.854400    -0.842606
C     -3.280322      0.280980     0.107227
H     -2.945339      0.958205    -1.844706
H     -2.848345      0.143670     1.096190
C     -4.656593     -0.218675    -0.041399
C     -5.237654     -0.912180     1.023457
C     -5.418387     -0.032469    -1.199499
C     -6.530040     -1.411950     0.937864
H     -4.661365     -1.062824     1.932232
C     -6.710074     -0.528892    -1.287336
H     -5.003017      0.511203    -2.040821
C     -7.272366     -1.222815    -0.220565
H     -6.957272     -1.950211     1.778108
H     -7.285121     -0.372117    -2.194692
H     -8.283501     -1.610541    -0.293608
C      4.072074      1.444745     0.069881
H      3.578430      2.215927    -0.524550
H      5.088709      1.793390     0.274521
C      4.147453      0.143647    -0.686643
C      3.092643     -0.361262    -1.435526
H      5.128592     -0.266213    -0.892639
H      3.276216     -1.303629    -1.943878
C      2.129506      0.448597    -2.207401
O      2.096098      1.652281    -2.336420
O      1.270948     -0.345331    -2.900137
H      0.722346      0.243202    -3.437278
49
 -1042.01040468 -1041.64715100  1.91 2.51
C      1.977824      1.711760    -0.039792
C      2.038094      0.786793     1.201628
H      1.718248      2.702804     0.355261
H      1.408955      1.150414     2.020954
C      1.813339     -0.708673     1.183569
C      2.541083     -1.438076     2.115412
H      0.837776     -1.060286     0.864604
H      2.187136     -2.409539     2.448256
C      3.874196     -1.076151     2.357160
C      4.414710     -0.000852     1.673471
H      4.521079     -1.765887     2.891003
H      5.484353      0.187768     1.740385
C      3.537690      1.162468     1.335512
C      3.532226      1.692487    -0.125051
H      3.692273      1.970808     2.056709
H      3.968636      2.684790    -0.267412
C      1.048971      1.472666    -1.223542
H      1.247304      2.248461    -1.975550
H      1.232653      0.520092    -1.706788
C     -0.391892      1.546331    -0.802978
C     -1.259342      0.536570    -0.879025
H     -0.729842      2.497524    -0.387624
H     -0.930504     -0.423857    -1.273628
C     -2.651079      0.631746    -0.451817
C     -3.517090     -0.382531    -0.541492
H     -2.964474      1.591694    -0.047752
H     -3.158896     -1.324021    -0.956541
C     -4.932273     -0.377260    -0.138822
C     -5.693323     -1.532132    -0.339577
C     -5.558501      0.731551     0.439350
C     -7.032987     -1.583382     0.020616
H     -5.222277     -2.402652    -0.787617
C     -6.896500      0.683194     0.801168
H     -4.997172      1.643229     0.611507
C     -7.640807     -0.473628     0.593642
H     -7.602232     -2.492313    -0.147008
H     -7.363341      1.554870     1.249274
H     -8.687811     -0.507477     0.877861
C      4.223341      0.688267    -1.065649
H      3.762484      0.714195    -2.054344
H      5.265809      0.997386    -1.190187
C      4.194876     -0.698095    -0.470196
C      3.064465     -1.505750    -0.476464
H      5.143402     -1.178125    -0.262725
H      3.178279     -2.486502    -0.021309
C      2.063307     -1.623029    -1.566686
O      0.999365     -2.189557    -1.473197
O      2.482574     -1.135420    -2.766367
H      1.775895     -1.332670    -3.398203
49
 -1042.00904094 -1041.64683200  2.77 2.71
C      1.706237     -0.360987     1.525136
C      3.217584     -0.692166     1.659345
H      1.387714     -0.093405     2.541130
H      3.477496     -1.012583     2.674085
C      4.005369     -1.614369     0.756141
C      5.336827     -1.272356     0.554227
H      3.712110     -2.658388     0.731611
H      6.059082     -2.031515     0.268266
C      5.664662      0.081162     0.386493
C      4.660863      1.030039     0.453663
H      6.640682      0.344095    -0.010281
H      4.879502      2.058036     0.171477
C      3.506734      0.807100     1.377925
C      2.065539      0.979595     0.825048
H      3.652773      1.373193     2.303048
H      1.508409      1.837475     1.210011
C      0.657014     -1.327207     0.990669
H      0.804328     -1.549890    -0.059236
H      0.754591     -2.276857     1.532761
C     -0.731655     -0.782911     1.176600
C     -1.590388     -0.547280     0.184821
H     -1.035316     -0.553015     2.199359
H     -1.291654     -0.764756    -0.840479
C     -2.931529     -0.005535     0.376785
C     -3.776234      0.235906    -0.629970
H     -3.221600      0.201623     1.404181
H     -3.439378      0.015890    -1.642483
C     -5.140095      0.779328    -0.530289
C     -5.867874      0.988931    -1.704712
C     -5.748950      1.097767     0.687668
C     -7.158276      1.499681    -1.670495
H     -5.409485      0.746844    -2.659554
C     -7.038383      1.607333     0.725197
H     -5.213629      0.946027     1.618461
C     -7.749588      1.811245    -0.452858
H     -7.702027      1.654125    -2.597193
H     -7.493118      1.847430     1.681289
H     -8.758363      2.210473    -0.419384
C      2.078246      1.021294    -0.714740
H      1.162866      0.577850    -1.110904
H      2.086199      2.068893    -1.031122
C      3.313263      0.342183    -1.253958
C      3.471754     -1.036790    -1.306004
H      3.998827      0.938902    -1.842944
H      4.406460     -1.389118    -1.736825
C      2.423288     -2.047818    -1.611233
O      2.513885     -3.232994    -1.403106
O      1.351916     -1.544919    -2.288158
H      0.793321     -2.307561    -2.499470
49
 -1042.00794636 -1041.64527900  3.46 3.69
C      1.852099      0.904117    -0.892528
C      2.072394      0.740260     0.632007
H      1.571480      1.957072    -1.028316
H      1.495693      1.465934     1.215253
C      1.934786     -0.557872     1.395559
C      2.781062     -0.707101     2.487033
H      0.957689     -1.029436     1.400902
H      2.514121     -1.376492     3.299726
C      4.106623     -0.263881     2.373253
C      4.522743      0.317619     1.188089
H      4.836085     -0.581827     3.112145
H      5.581296      0.521464     1.039448
C      3.553580      1.141421     0.401496
C      3.391791      0.854381    -1.116965
H      3.722352      2.205238     0.594494
H      3.755052      1.639426    -1.785645
C      0.839221      0.091269    -1.688471
H      0.932652      0.370278    -2.746904
H      1.028374     -0.974478    -1.632707
C     -0.562137      0.371293    -1.223209
C     -1.376025     -0.541933    -0.693974
H     -0.898000      1.404922    -1.308934
H     -1.001383     -1.556471    -0.571231
C     -2.749138     -0.317008    -0.218595
C     -3.493563      0.769570    -0.440866
H     -3.172419     -1.141062     0.350595
H     -3.079175      1.570701    -1.049173
C     -4.862547      1.006265     0.044958
C     -5.517536      0.148491     0.934238
C     -5.546005      2.142292    -0.396859
C     -6.810826      0.416049     1.356732
H     -5.011062     -0.734345     1.308543
C     -6.840999      2.412807     0.024120
H     -5.050482      2.822125    -1.084562
C     -7.480371      1.547972     0.902775
H     -7.301139     -0.262069     2.048338
H     -7.350993      3.300954    -0.335529
H     -8.492843      1.753609     1.235509
C      4.058136     -0.483476    -1.486806
H      3.513697     -0.967482    -2.299134
H      5.066134     -0.273026    -1.857571
C      4.162114     -1.373985    -0.273006
C      3.084438     -2.080391     0.246273
H      5.151377     -1.675139     0.049237
H      3.293325     -2.692108     1.120399
C      2.002763     -2.742759    -0.525464
O      0.986594     -3.192321    -0.048788
O      2.287235     -2.927546    -1.843621
H      1.541731     -3.423321    -2.212263
49
 -1042.00654672 -1041.64488600  4.34 3.93
C      1.533420      1.174988    -0.046384
C      3.036674      1.540630     0.089157
H      1.096479      2.001055    -0.622881
H      3.202943      2.620724     0.013874
C      3.960946      1.090089     1.197881
C      5.287422      0.889301     0.836775
H      3.724447      1.412695     2.206133
H      6.072921      0.950292     1.584456
C      5.563104      0.280562    -0.396548
C      4.511630     -0.074591    -1.221624
H      6.561261     -0.102653    -0.586290
H      4.707211     -0.683500    -2.102063
C      3.278739      0.771380    -1.237503
C      1.897396      0.077695    -1.085469
H      3.297544      1.444867    -2.099896
H      1.260401      0.087532    -1.973554
C      0.596470      0.934679     1.130106
H      0.861478      0.044095     1.687102
H      0.688315      1.781320     1.822815
C     -0.830198      0.809267     0.673973
C     -1.582410     -0.273838     0.864730
H     -1.246956      1.668750     0.148897
H     -1.145680     -1.108381     1.411247
C     -2.973167     -0.469405     0.429227
C     -3.645742      0.305821    -0.425099
H     -3.462577     -1.344620     0.849171
H     -3.133581      1.153879    -0.874536
C     -5.041843      0.126417    -0.855334
C     -5.895872     -0.831579    -0.300140
C     -5.545589      0.951413    -1.864384
C     -7.202243     -0.962017    -0.746452
H     -5.541962     -1.478408     0.495142
C     -6.852977      0.823050    -2.313482
H     -4.896943      1.704295    -2.303836
C     -7.687345     -0.137358    -1.756496
H     -7.849627     -1.711318    -0.301496
H     -7.219833      1.474694    -3.100252
H     -8.710380     -0.242945    -2.103385
C      2.071189     -1.370753    -0.590752
H      1.226408     -1.657518     0.038114
H      2.060169     -2.035613    -1.459908
C      3.388635     -1.531948     0.127168
C      3.620110     -1.079484     1.419803
H      4.102151     -2.235934    -0.283024
H      4.611613     -1.279730     1.820100
C      2.661950     -1.091250     2.558317
O      2.790425     -0.471551     3.585760
O      1.643370     -1.986174     2.413827
H      1.150102     -1.958917     3.247013
49
 -1042.00577513 -1041.64443100  4.82 4.22
C      1.441499     -0.666490    -0.539043
C      2.031398      0.236146    -1.653111
H      0.708988     -1.307206    -1.042858
H      1.335774      0.382223    -2.486693
C      2.645046      1.598198    -1.416877
C      3.694538      1.948625    -2.256271
H      2.001286      2.374710    -1.016253
H      3.931118      2.994326    -2.430124
C      4.636827      0.968461    -2.595719
C      4.481368     -0.313058    -2.095610
H      5.577523      1.270829    -3.045981
H      5.283940     -1.035791    -2.229023
C      3.101703     -0.859190    -1.901192
C      2.757688     -1.504206    -0.531392
H      2.833834     -1.511832    -2.737339
H      2.570431     -2.581283    -0.553240
C      0.752442     -0.110208     0.710868
H      1.082859     -0.647998     1.603006
H      1.017020      0.940864     0.848546
C     -0.743628     -0.189891     0.609438
C     -1.526708     -0.818470     1.485638
H     -1.189872      0.296751    -0.258205
H     -1.050224     -1.328611     2.321643
C     -2.992588     -0.922822     1.438952
C     -3.808716     -0.196922     0.670526
H     -3.418871     -1.653770     2.121778
H     -3.376880      0.567398     0.027804
C     -5.275428     -0.302633     0.608558
C     -5.997402     -1.313600     1.250841
C     -5.986759      0.647997    -0.127931
C     -7.380471     -1.363073     1.164170
H     -5.475602     -2.076159     1.818523
C     -7.371634      0.602257    -0.214878
H     -5.440889      1.437664    -0.636991
C     -8.075236     -0.404562     0.433284
H     -7.922199     -2.157199     1.668584
H     -7.901485      1.355028    -0.790083
H     -9.157904     -0.446141     0.368643
C      3.864106     -1.202004     0.491815
H      3.455930     -1.163755     1.502360
H      4.582755     -2.027320     0.467881
C      4.578402      0.074118     0.123327
C      4.028727      1.336749     0.310047
H      5.648215      0.025085    -0.040686
H      4.654364      2.177249     0.022818
C      3.156422      1.772306     1.428627
O      2.611405      2.850364     1.486671
O      3.090305      0.907705     2.474183
H      2.536586      1.339138     3.140962
49
 -1042.00620579 -1041.64392100  4.55 4.54
C      1.668027     -1.337029     0.591249
C      3.212241     -1.450578     0.614685
H      1.306345     -2.160077     1.219781
H      3.553721     -2.477952     0.781978
C      4.129915     -0.905936    -0.457518
C      5.371173     -0.459296    -0.023226
H      4.027385     -1.312164    -1.458860
H      6.211889     -0.423718    -0.710075
C      5.442593      0.249961     1.182936
C      4.278584      0.474439     1.899461
H      6.347177      0.801510     1.420940
H      4.303948      1.149012     2.752956
C      3.203435     -0.566337     1.888536
C      1.749338     -0.119481     1.566377
H      3.250007     -1.165942     2.802351
H      1.040530     -0.203776     2.394064
C      0.862763     -1.425234    -0.701461
H      1.330447     -0.851329    -1.498688
H      0.884095     -2.468766    -1.035094
C     -0.564775     -0.994671    -0.533369
C     -1.617254     -1.789051    -0.727786
H     -0.724957      0.034143    -0.218359
H     -1.433368     -2.825368    -1.008462
C     -3.033225     -1.421894    -0.581503
C     -3.516440     -0.182091    -0.464980
H     -3.724373     -2.261114    -0.589709
H     -2.822473      0.654774    -0.504319
C     -4.930287      0.192597    -0.302295
C     -5.951138     -0.742532    -0.105004
C     -5.276369      1.545906    -0.342608
C     -7.269052     -0.335643     0.037325
H     -5.715746     -1.799887    -0.052865
C     -6.594957      1.956300    -0.200673
H     -4.495004      2.286373    -0.490487
C     -7.598673      1.015116    -0.011840
H     -8.046669     -1.077466     0.190906
H     -6.838182      3.013511    -0.238079
H     -8.631556      1.329487     0.099512
C      1.748738      1.329260     1.048778
H      0.920384      1.498245     0.361358
H      1.592271      1.991112     1.906534
C      3.077805      1.659750     0.416941
C      3.458047      1.195204    -0.836490
H      3.635211      2.497141     0.819440
H      4.433799      1.516133    -1.190119
C      2.581565      0.997351    -2.015827
O      2.945246      0.506629    -3.059438
O      1.327836      1.510874    -1.894158
H      0.889981      1.352506    -2.742817
49
 -1042.00457288 -1041.64259300  5.57 5.37
C      1.821507     -1.098209    -1.415667
C      1.383615      0.337458    -1.809491
H      1.433588     -1.725513    -2.228973
H      0.490240      0.329928    -2.443476
C      1.152239      1.496210    -0.868672
C      1.453559      2.755824    -1.368368
H      0.348875      1.368906    -0.147935
H      0.971576      3.640327    -0.960927
C      2.593673      2.905007    -2.169085
C      3.377750      1.792797    -2.435440
H      2.965341      3.902754    -2.381403
H      4.334358      1.930032    -2.935477
C      2.714920      0.461613    -2.597750
C      3.284718     -0.754743    -1.818708
H      2.580994      0.235580    -3.659753
H      3.762284     -1.525740    -2.428898
C      1.447828     -1.801276    -0.113198
H      1.703620     -2.863091    -0.232001
H      2.025110     -1.444900     0.733434
C     -0.018849     -1.683282     0.188830
C     -0.510740     -1.231741     1.342614
H     -0.702689     -1.989436    -0.603618
H      0.191309     -0.951086     2.124885
C     -1.931192     -1.083678     1.692133
C     -2.965642     -1.177004     0.852109
H     -2.119357     -0.860067     2.739469
H     -2.767234     -1.359671    -0.201799
C     -4.389377     -1.038686     1.198235
C     -5.333330     -1.032001     0.167888
C     -4.849618     -0.914913     2.513182
C     -6.689218     -0.898102     0.434113
H     -4.993670     -1.130797    -0.859500
C     -6.203364     -0.782791     2.782395
H     -4.145668     -0.927965     3.337905
C     -7.130327     -0.771625     1.744934
H     -7.401971     -0.892463    -0.384554
H     -6.539933     -0.689596     3.810303
H     -8.189091     -0.667170     1.959797
C      4.262869     -0.278481    -0.726446
H      4.182697     -0.900194     0.167022
H      5.283077     -0.384981    -1.106656
C      4.016493      1.171255    -0.397430
C      3.002350      1.586109     0.456335
H      4.822692      1.874415    -0.568194
H      2.954374      2.662515     0.621981
C      2.534415      0.849030     1.659266
O      2.998704     -0.166050     2.109139
O      1.541115      1.471051     2.352681
H      1.245379      2.254445     1.874769
49
 -1042.00557775 -1041.64226100  4.94 5.58
C      2.107545      1.460234    -0.141575
C      2.222032      0.454174     1.034165
H      1.984441      2.440451     0.337202
H      1.726776      0.819956     1.939628
C      1.860081     -1.012633     0.968644
C      2.625716     -1.858370     1.763436
H      0.823253     -1.256253     0.766458
H      2.224722     -2.813908     2.088986
C      4.006479     -1.628470     1.857494
C      4.558578     -0.558682     1.178525
H      4.645036     -2.406723     2.264436
H      5.641049     -0.467840     1.113976
C      3.755728      0.690640     1.009064
C      3.631416      1.313786    -0.407706
H      4.065248      1.435925     1.748175
H      4.145697      2.267759    -0.552713
C      1.044967      1.388918    -1.232748
H      1.250694      2.192847    -1.953258
H      1.068182      0.459768    -1.794080
C     -0.328926      1.588259    -0.656053
C     -1.324827      0.704751    -0.726772
H     -0.499316      2.528434    -0.127975
H     -1.163208     -0.245488    -1.232271
C     -2.644753      0.930569    -0.147573
C     -3.643627      0.046167    -0.230858
H     -2.787418      1.877448     0.368343
H     -3.455938     -0.887110    -0.760653
C     -5.000856      0.188297     0.319299
C     -5.925668     -0.837012     0.102863
C     -5.415197      1.304104     1.053670
C     -7.219918     -0.755916     0.598133
H     -5.620184     -1.711028    -0.465635
C     -6.707257      1.387710     1.550638
H     -4.722801      2.117058     1.242247
C     -7.616369      0.359035     1.325515
H     -7.919264     -1.565668     0.415046
H     -7.008395      2.262359     2.118863
H     -8.626816      0.428298     1.715827
C      4.090525      0.314394    -1.483495
H      3.512956      0.493815    -2.395957
H      5.135801      0.525496    -1.728635
C      3.988288     -1.107275    -0.976340
C      2.789084     -1.799428    -0.852387
H      4.903984     -1.682509    -0.916857
H      2.871490     -2.819022    -0.480407
C      1.630272     -1.759388    -1.809938
O      0.509841     -2.099649    -1.542942
O      1.927772     -1.411922    -3.090063
H      2.883084     -1.296348    -3.173736
49
 -1042.00259904 -1041.64034600  6.81 6.78
C      0.063055     -0.232182     2.023382
C      0.529041      0.265326     3.420498
H     -0.776357     -0.908199     2.233247
H      0.272388     -0.444006     4.214517
C      1.921633      0.740935     3.768960
C      1.997262      1.749855     4.722713
H      2.725571      0.017937     3.693606
H      2.902558      1.879663     5.308720
C      1.051986      2.785704     4.686132
C      0.059622      2.755771     3.725457
H      1.239527      3.693235     5.252021
H     -0.575990      3.627769     3.584968
C     -0.477944      1.437337     3.270662
C     -0.571980      1.157307     1.746734
H     -1.425535      1.226840     3.776032
H     -1.582380      1.106910     1.332819
C      0.953795     -0.961521     1.025351
H      1.817207     -0.381124     0.720886
H      1.349023     -1.858002     1.521247
C      0.190517     -1.366091    -0.204694
C      0.568630     -1.066260    -1.447139
H     -0.722813     -1.938706    -0.042335
H      1.501762     -0.520254    -1.578462
C     -0.133062     -1.421195    -2.689472
C     -1.378508     -1.894441    -2.780858
H      0.439071     -1.255134    -3.598835
H     -1.959419     -2.014485    -1.868944
C     -2.083365     -2.267142    -4.017940
C     -3.434889     -2.614247    -3.943118
C     -1.464784     -2.294647    -5.271759
C     -4.150966     -2.968785    -5.078406
H     -3.930230     -2.602570    -2.976068
C     -2.177341     -2.648569    -6.407439
H     -0.413336     -2.045439    -5.363762
C     -3.524203     -2.985440    -6.317654
H     -5.200615     -3.232159    -4.994098
H     -1.678235     -2.664829    -7.371378
H     -4.078558     -3.261446    -7.209049
C      0.258733      2.180009     0.952320
H      0.637024      1.691311     0.049038
H     -0.405134      2.983368     0.618947
C      1.347656      2.777412     1.816452
C      2.511492      2.105482     2.173608
H      1.319063      3.846806     1.985625
H      3.211729      2.671597     2.785655
C      3.315395      1.183691     1.294739
O      4.080855      0.348642     1.688453
O      3.218531      1.418370    -0.043955
H      2.662519      2.195600    -0.187423
