49
 -1041.98438588 -1041.62258800  0.00 0.00
C     -0.024249      0.124379     1.489272
C      1.296734     -0.123590     0.796253
H     -0.618931      0.756217     0.818954
H      1.936452     -0.775999     1.397462
C      0.920207     -0.783480    -0.522271
C      0.967931      0.183643    -1.657379
H      1.544053     -1.653959    -0.740141
H      1.459958     -0.092336    -2.580846
C      0.910536      1.593896    -1.354690
C      1.149392      2.150710    -0.131726
H      0.754934      2.273402    -2.192315
H      1.091088      3.231939    -0.028083
C      1.633875      1.347847     1.047114
C      0.670589      1.247472     2.322975
H      2.674628      1.598375     1.284664
H      0.035332      2.118893     2.509085
C     -0.713067     -1.246437     1.375301
H     -1.760865     -1.289500     1.684547
H     -0.156156     -2.042260     1.881178
C     -0.562923     -1.303262    -0.183402
C     -0.862088     -2.468673    -1.055392
H     -1.229087     -0.506156    -0.519354
H     -0.931196     -3.479578    -0.664383
C     -0.889225     -2.233642    -2.389492
C     -0.846658     -0.906406    -2.941540
H     -0.894663     -3.079382    -3.073255
H     -1.414476     -0.131779    -2.441440
C     -0.526207     -0.622144    -4.333763
C     -0.838001      0.639555    -4.862346
C      0.126603     -1.540061    -5.170974
C     -0.549671      0.959334    -6.179362
H     -1.321486      1.371184    -4.220512
C      0.413366     -1.219938    -6.489889
H      0.419541     -2.512442    -4.788411
C      0.073183      0.026956    -7.003542
H     -0.811469      1.939172    -6.566649
H      0.911499     -1.948582    -7.122109
H      0.298018      0.272725    -8.036249
C      1.393463      0.850601     3.610010
H      2.017045      1.682425     3.954782
H      2.063344      0.002411     3.419964
C      0.417321      0.464353     4.677861
C      0.279049      1.081653     5.848266
H     -0.238228     -0.379434     4.468388
H      0.888237      1.933735     6.133896
C     -0.727178      0.615511     6.830505
O     -1.494882     -0.302678     6.683783
O     -0.695835      1.357180     7.963394
H     -1.374065      0.994391     8.551578
49
 -1041.98399111 -1041.62204600  0.25 0.34
C     -1.242544      1.185840    -0.581284
C     -0.701814      0.765798     0.766236
H     -0.675990      0.626984    -1.336002
H     -1.241970      1.263190     1.576947
C     -0.908975     -0.741146     0.808976
C      0.355066     -1.479705     0.521549
H     -1.332785     -1.072276     1.760378
H      0.651620     -2.307568     1.152226
C      1.417031     -0.776389    -0.158617
C      1.521283      0.579236    -0.273944
H      2.248548     -1.375575    -0.528962
H      2.376470      0.996843    -0.800616
C      0.579244      1.528787     0.420136
C     -0.342251      2.459829    -0.501586
H      1.092765      2.052770     1.234620
H      0.096111      2.755357    -1.459901
C     -2.621054      0.504781    -0.605325
H     -3.163809      0.544256    -1.553430
H     -3.277783      0.853485     0.198477
C     -2.031305     -0.920613    -0.328489
C     -2.805714     -2.153571    -0.031657
H     -1.477937     -1.134926    -1.244922
H     -3.835997     -2.120193     0.310423
C     -2.116752     -3.320080    -0.056149
C     -0.767654     -3.411097    -0.545607
H     -2.580692     -4.214311     0.353691
H     -0.509133     -2.837541    -1.426946
C      0.114152     -4.538204    -0.273899
C     -0.107699     -5.448067     0.771373
C      1.266171     -4.708098    -1.056532
C      0.764509     -6.503953     0.991797
H     -0.966546     -5.328194     1.423830
C      2.137966     -5.761975    -0.834702
H      1.466321     -3.998188    -1.854625
C      1.887747     -6.670988     0.188840
H      0.568771     -7.200788     1.801039
H      3.016577     -5.876867    -1.461966
H      2.566655     -7.499184     0.363797
C     -0.910853      3.687826     0.210157
H     -1.309812      3.402107     1.191551
H     -1.748326      4.082897    -0.374758
C      0.125957      4.753176     0.396386
C      0.097843      5.948898    -0.186451
H      0.974557      4.528061     1.040449
H     -0.707455      6.256916    -0.846087
C      1.187906      6.925200     0.046295
O      2.150870      6.762496     0.753608
O      0.986421      8.070106    -0.648064
H      1.734311      8.651608    -0.447629
