49
 -1042.02958683 -1041.66291800  0.00 0.00
C      1.424459     -2.662169     1.220387
C      2.495683     -3.614238     0.586560
H      1.236058     -2.848314     2.282440
H      3.123210     -4.028401     1.381133
C      2.078713     -4.705686    -0.349225
C      2.036419     -4.509091    -1.667387
H      1.794436     -5.667574     0.070845
H      1.720623     -5.304784    -2.336018
C      2.387196     -3.206256    -2.255420
C      2.878449     -2.211226    -1.514659
H      2.230948     -3.068718    -3.322013
H      3.122039     -1.256922    -1.975706
C      3.176942     -2.373784    -0.052536
C      2.392571     -1.482016     0.952147
H      4.263936     -2.324824     0.081927
H      3.036139     -1.368468     1.831639
C      0.097420     -2.601224     0.469704
H      0.250439     -2.798505    -0.594660
H     -0.544959     -3.414801     0.830111
C     -0.625461     -1.281330     0.611194
C     -1.811134     -1.070314    -0.084906
H     -0.469558     -0.742647     1.542912
H     -2.145998     -1.847189    -0.770612
C     -2.452009      0.161148    -0.145553
C     -1.953830      1.280498     0.508255
H     -3.273246      0.277102    -0.846161
H     -1.373881      1.140159     1.415314
C     -2.536429      2.625242     0.357373
C     -3.204228      3.023887    -0.805878
C     -2.409432      3.551343     1.397186
C     -3.756800      4.291375    -0.908878
H     -3.285876      2.340101    -1.644974
C     -2.964116      4.819150     1.295678
H     -1.869031      3.269246     2.295999
C     -3.645195      5.193401     0.144100
H     -4.273587      4.580893    -1.818554
H     -2.864375      5.518397     2.120112
H     -4.080347      6.184339     0.063594
C      1.889555     -0.083143     0.606901
H      1.651183      0.440312     1.535387
H      2.727656      0.476913     0.169118
C      0.709923      0.053552    -0.335095
C      0.097257      1.293630    -0.544471
H      0.723575     -0.594535    -1.204920
H     -0.368258      1.479812    -1.504809
C      0.502421      2.505209     0.183641
O      0.873572      2.577901     1.336397
O      0.382292      3.614606    -0.587098
H      0.604628      4.367938    -0.020521
49
 -1042.02685934 -1041.66105400  1.71 1.17
C     -2.138995      1.232519    -1.624684
C     -2.170731      2.268753    -2.784474
H     -2.920145      0.483311    -1.791160
H     -3.113739      2.265743    -3.342771
C     -1.829065      3.691585    -2.446160
C     -0.759202      4.309834    -2.948057
H     -2.514540      4.232468    -1.797231
H     -0.570622      5.353621    -2.711944
C      0.196492      3.614456    -3.824871
C      0.088682      2.307411    -4.065607
H      1.007363      4.191250    -4.260585
H      0.819674      1.806409    -4.696153
C     -1.013659      1.486618    -3.469325
C     -0.776029      0.700540    -2.134789
H     -1.407108      0.800284    -4.225374
H     -0.721496     -0.382044    -2.257519
C     -2.159244      1.651489    -0.161639
H     -1.625126      2.597250    -0.018426
H     -3.186485      1.819278     0.183477
C     -1.497149      0.550136     0.633939
C     -1.443644      0.504642     2.021467
H     -1.481202     -0.399324     0.107195
H     -1.779027      1.367317     2.593932
C     -0.753395     -0.505144     2.689491
C     -0.156293     -1.554851     2.005750
H     -0.566180     -0.385737     3.752289
H     -0.590144     -1.873837     1.063545
C      0.709930     -2.560275     2.640225
C      0.834285     -3.823202     2.052539
C      1.435386     -2.299261     3.808019
C      1.624936     -4.805710     2.630460
H      0.295512     -4.034990     1.132973
C      2.228274     -3.280219     4.384768
H      1.385054     -1.317942     4.269584
C      2.322446     -4.539938     3.802589
H      1.696857     -5.783468     2.164195
H      2.780378     -3.060327     5.293205
H      2.941097     -5.307077     4.257010
C      0.427467      1.185374    -1.324084
H      1.335323      0.835237    -1.824737
H      0.460077      2.277915    -1.371177
C      0.518741      0.829220     0.167795
C      1.250323     -0.252293     0.664686
H      0.585742      1.710586     0.799221
H      1.845822     -0.118961     1.558504
C      1.631598     -1.372739    -0.198116
O      0.971388     -1.817293    -1.115191
O      2.818900     -1.921525     0.152823
H      2.961470     -2.677096    -0.435613
49
 -1042.02542382 -1041.65882800  2.61 2.57
C      1.959333     -2.351291     1.843226
C      2.325289     -3.217452     0.597873
H      2.455140     -2.792366     2.712896
H      2.784311     -4.169432     0.890749
C      1.274199     -3.535012    -0.424835
C      1.371038     -3.130672    -1.691052
H      0.445742     -4.169848    -0.117876
H      0.623000     -3.428973    -2.420234
C      2.452915     -2.235173    -2.134252
C      3.342519     -1.741767    -1.272913
H      2.482694     -1.945714    -3.180950
H      4.102425     -1.042884    -1.615367
C      3.358041     -2.142931     0.170738
C      2.826973     -1.182248     1.291636
H      4.376350     -2.458135     0.420759
H      3.626622     -0.899607     1.983124
C      0.490816     -2.131302     2.233215
H     -0.033437     -3.086358     2.114901
H      0.465007     -1.907218     3.305806
C     -0.304223     -1.040104     1.544158
C     -1.445620     -1.341058     0.808323
H     -0.276893     -0.088250     2.063579
H     -1.636721     -2.380647     0.549712
C     -2.236118     -0.361049     0.215424
C     -1.977333      0.989687     0.405770
H     -2.984307     -0.669470    -0.508359
H     -1.524929      1.297427     1.343733
C     -2.701562      2.064468    -0.293096
C     -3.263070      1.886685    -1.562072
C     -2.825650      3.317090     0.315559
C     -3.955933      2.915944    -2.182633
H     -3.155053      0.934645    -2.072624
C     -3.521050      4.346193    -0.303163
H     -2.373829      3.479708     1.290146
C     -4.093529      4.148697    -1.553708
H     -4.388261      2.757615    -3.165708
H     -3.616896      5.306911     0.193289
H     -4.638345      4.952139    -2.038997
C      2.116441      0.105768     0.884043
H      1.897979      0.696094     1.777654
H      2.821428      0.711225     0.299767
C      0.859076     -0.069780     0.059708
C      0.142900      1.021318    -0.443192
H      0.856903     -0.930326    -0.591278
H     -0.285786      0.945849    -1.434443
C      0.408908      2.384388     0.028306
O      0.678438      2.708814     1.166961
O      0.278166      3.306017    -0.957222
H      0.415896      4.172388    -0.547079
49
 -1042.02515466 -1041.65829400  2.78 2.90
C      0.886515      1.431385     2.759553
C      0.370179      1.189889     4.219836
H      1.774267      2.069229     2.702926
H      1.183709      1.384583     4.924844
C     -0.883136      1.853331     4.699213
C     -2.068645      1.251603     4.595832
H     -0.810191      2.851326     5.124855
H     -2.973101      1.747877     4.935822
C     -2.194382     -0.086222     3.995675
C     -1.124334     -0.802025     3.645054
H     -3.193572     -0.483269     3.837804
H     -1.248672     -1.785626     3.198239
C      0.276037     -0.328192     3.905676
C      1.202261     -0.084963     2.680296
H      0.723071     -0.983521     4.662531
H      2.228400     -0.231314     3.036048
C     -0.169067      1.941074     1.780545
H     -1.163663      1.598352     2.078011
H     -0.203925      3.036099     1.846640
C      0.071324      1.525036     0.348348
C     -0.857954      1.843463    -0.634351
H      1.109607      1.392878     0.054080
H     -1.774793      2.345732    -0.329362
C     -0.802095      1.338271    -1.928582
C      0.201116      0.467990    -2.336482
H     -1.654891      1.504523    -2.579847
H      1.175218      0.541494    -1.863984
C      0.210283     -0.178960    -3.659890
C     -0.968636     -0.510409    -4.335668
C      1.429355     -0.497799    -4.265027
C     -0.927304     -1.102896    -5.588747
H     -1.930634     -0.311707    -3.873675
C      1.472936     -1.087442    -5.520347
H      2.355121     -0.268350    -3.744717
C      0.293856     -1.388374    -6.190539
H     -1.853722     -1.349649    -6.097904
H      2.431601     -1.311981    -5.977600
H      0.324919     -1.849162    -7.172638
C      1.086595     -0.869349     1.374806
H      2.000649     -0.701016     0.801693
H      1.088036     -1.940074     1.622067
C     -0.109330     -0.597710     0.484687
C     -0.238948     -1.159446    -0.788692
H     -1.049696     -0.445785     1.003342
H     -1.244050     -1.306451    -1.166034
C      0.695586     -2.127252    -1.387291
O      0.339427     -3.095332    -2.015118
O      2.019898     -1.855088    -1.211167
H      2.494776     -2.574776    -1.650761
49
 -1042.02269633 -1041.65647200  4.32 4.04
C     -0.118161      1.146008     3.053934
C      0.489504      0.555240     4.372099
H     -0.540170      2.149475     3.167999
H      0.724727      1.374628     5.057573
C     -0.221699     -0.534763     5.111686
C      0.041279     -1.819807     4.871940
H     -0.974261     -0.257074     5.845864
H     -0.489434     -2.602561     5.406309
C      1.033590     -2.219214     3.860914
C      1.797167     -1.322356     3.234250
H      1.129401     -3.276640     3.629397
H      2.517028     -1.646464     2.486301
C      1.751815      0.140333     3.568441
C      1.308477      1.127456     2.451017
H      2.705447      0.414145     4.034940
H      1.784476      2.087295     2.680231
C     -1.128769      0.242015     2.355244
H     -0.912990     -0.808481     2.567342
H     -2.121123      0.430807     2.783899
C     -1.182740      0.421034     0.854213
C     -2.018915     -0.407050     0.107065
H     -0.975266      1.420105     0.477877
H     -2.539202     -1.208636     0.629264
C     -2.036261     -0.428403    -1.281426
C     -1.229845      0.407047    -2.041381
H     -2.587848     -1.223889    -1.772966
H     -0.929550      1.365419    -1.629621
C     -1.118080      0.305071    -3.505898
C     -1.344022     -0.894854    -4.191912
C     -0.756287      1.433395    -4.248430
C     -1.251266     -0.950821    -5.574382
H     -1.591636     -1.797025    -3.641102
C     -0.665639      1.378051    -5.630991
H     -0.540075      2.362208    -3.729598
C     -0.918720      0.187250    -6.301269
H     -1.434508     -1.888939    -6.088936
H     -0.394946      2.268982    -6.188994
H     -0.848909      0.143905    -7.383371
C      1.552755      0.872256     0.967142
H      1.435020      1.814267     0.427882
H      2.609025      0.597367     0.840718
C      0.724263     -0.184922     0.261749
C      0.792017     -0.324988    -1.130977
H      0.599709     -1.119566     0.799055
H      0.611626     -1.315029    -1.538871
C      1.539581      0.612894    -1.992095
O      1.647376      1.801866    -1.814665
O      2.115410      0.061848    -3.094367
H      1.960627     -0.888886    -3.123097
49
 -1042.02242717 -1041.65628600  4.49 4.16
C      0.763847     -2.366221     1.562869
C      1.806614     -3.502737     1.362690
H      0.695720     -2.127745     2.629604
H      2.016702     -4.065315     2.279444
C      1.549856     -4.484788     0.255695
C      2.359902     -4.604690    -0.797081
H      0.688155     -5.141125     0.356211
H      2.162400     -5.357579    -1.555344
C      3.533442     -3.734571    -0.974307
C      3.771627     -2.718095    -0.144727
H      4.196513     -3.930653    -1.812144
H      4.630600     -2.070779    -0.306156
C      2.867580     -2.420530     1.012306
C      1.717960     -1.365864     0.861923
H      3.469819     -2.173246     1.892010
H      1.889477     -0.442003     1.416638
C     -0.641429     -2.440755     0.982996
H     -0.639752     -2.970790     0.024033
H     -1.307698     -3.004032     1.647531
C     -1.136483     -1.026108     0.796009
C     -2.421459     -0.685837     0.398194
H     -0.597880     -0.302928     1.401477
H     -3.106867     -1.472587     0.088699
C     -2.779792      0.637572     0.147016
C     -1.890277      1.685996     0.342473
H     -3.725028      0.827522    -0.352401
H     -1.138098      1.586769     1.117714
C     -2.164969      3.076516    -0.053579
C     -3.034586      3.402545    -1.100192
C     -1.519959      4.119922     0.617053
C     -3.276000      4.726185    -1.437032
H     -3.525513      2.614144    -1.662207
C     -1.761446      5.444189     0.282837
H     -0.821731      3.885329     1.415912
C     -2.645365      5.753747    -0.743571
H     -3.957691      4.958950    -2.249158
H     -1.258427      6.238001     0.826167
H     -2.837250      6.789003    -1.006589
C      1.345092     -1.039071    -0.586823
H      2.128262     -0.398501    -1.004532
H      1.378638     -1.966167    -1.166220
C     -0.023547     -0.412410    -0.887411
C     -0.246030      0.950189    -1.105015
H     -0.628657     -1.042895    -1.532445
H     -0.914770      1.237495    -1.906319
C      0.731874      1.996917    -0.784042
O      0.976430      2.951064    -1.481329
O      1.347206      1.826268     0.422838
H      1.972986      2.559696     0.508282
49
 -1042.02081221 -1041.65574800  5.51 4.50
C      2.743025     -1.106621    -0.284591
C      4.006154     -0.723071    -1.108253
H      3.053733     -1.528212     0.677062
H      4.920446     -1.210121    -0.750900
C      3.933863     -0.893410    -2.598705
C      4.008895      0.137144    -3.441942
H      3.856723     -1.907292    -2.985566
H      3.995007     -0.033075    -4.515078
C      4.108707      1.524768    -2.962071
C      4.021107      1.814850    -1.663592
H      4.239709      2.314146    -3.696748
H      4.072116      2.849017    -1.330668
C      3.830272      0.746777    -0.630612
C      2.391092      0.392965    -0.121697
H      4.474615      0.952424     0.229574
H      2.188719      0.710067     0.901668
C      1.629682     -1.965036    -0.866237
H      1.511476     -1.777709    -1.939067
H      1.861457     -3.031472    -0.760437
C      0.352991     -1.618850    -0.132464
C     -0.844705     -2.309679    -0.302706
H      0.531263     -1.169437     0.840065
H     -0.921252     -3.041915    -1.104250
C     -2.011215     -1.927907     0.355075
C     -2.026041     -0.901419     1.287751
H     -2.951175     -2.360383     0.026167
H     -1.124549     -0.696738     1.855996
C     -3.254671     -0.345518     1.873109
C     -4.495585     -0.420105     1.227652
C     -3.191467      0.301567     3.111761
C     -5.636514      0.097261     1.822170
H     -4.571547     -0.883534     0.248860
C     -4.332644      0.816785     3.707208
H     -2.230768      0.401641     3.608295
C     -5.562340      0.711356     3.067985
H     -6.590593      0.025297     1.309371
H     -4.262513      1.304004     4.674745
H     -6.456554      1.113136     3.533343
C      1.263180      0.869756    -1.037752
H      1.156324      1.951182    -0.910833
H      1.570266      0.716474    -2.076675
C     -0.127806      0.222823    -0.916820
C     -1.170346      0.780492    -0.168253
H     -0.467558     -0.196781    -1.859679
H     -2.169819      0.763040    -0.588127
C     -0.909111      1.705924     0.942375
O      0.078798      1.671939     1.637604
O     -1.873759      2.623999     1.211251
H     -2.617087      2.529453     0.604636
49
 -1042.02124286 -1041.65463200  5.24 5.20
C     -0.275636     -0.177139     3.524695
C      1.262872     -0.249441     3.778746
H     -0.772036     -0.174696     4.499544
H      1.485596     -0.509844     4.820559
C      2.123591     -1.125068     2.915923
C      3.093889     -0.630691     2.147293
H      1.976310     -2.200944     2.981809
H      3.738147     -1.297837     1.581539
C      3.295627      0.820278     1.997156
C      2.477052      1.698703     2.576288
H      4.106917      1.162240     1.360728
H      2.617714      2.764718     2.411903
C      1.369108      1.270270     3.489908
C     -0.127821      1.290066     3.021992
H      1.461943      1.839938     4.420361
H     -0.719865      1.991110     3.618274
C     -0.976435     -1.249057     2.674420
H     -0.541772     -2.220124     2.937110
H     -2.023035     -1.293103     2.997726
C     -0.993672     -1.107278     1.166565
C     -0.445350     -2.082781     0.343219
H     -1.848592     -0.555838     0.789638
H      0.175874     -2.853884     0.794593
C     -0.478741     -1.999628    -1.046091
C     -1.131417     -0.960793    -1.697998
H      0.138291     -2.687313    -1.616384
H     -1.999885     -0.522312    -1.217239
C     -1.088270     -0.761782    -3.156460
C      0.002544     -1.162566    -3.935250
C     -2.158852     -0.130770    -3.796519
C      0.003481     -0.971970    -5.309369
H      0.862830     -1.626226    -3.462552
C     -2.160701      0.059002    -5.170826
H     -3.004373      0.209321    -3.204976
C     -1.080616     -0.365497    -5.934648
H      0.857654     -1.294037    -5.896793
H     -3.009369      0.539250    -5.647884
H     -1.079961     -0.219178    -7.010036
C     -0.440641      1.577395     1.554842
H     -1.525727      1.632881     1.436036
H     -0.063114      2.579178     1.312176
C      0.150033      0.594595     0.567118
C      0.063474      0.752842    -0.819431
H      1.065774      0.125020     0.892110
H      0.914177      0.443908    -1.413980
C     -0.703218      1.825499    -1.468522
O     -0.307152      2.479289    -2.402901
O     -1.950786      2.022117    -0.949496
H     -2.335858      2.752178    -1.454918
49
 -1042.01912547 -1041.65281600  6.56 6.34
C     -1.825581      0.827556    -2.971234
C     -0.545685      0.841427    -3.863562
H     -2.681851      1.067814    -3.608278
H     -0.745249      1.288125    -4.844982
C      0.717300      1.465212    -3.347775
C      1.834189      0.761135    -3.166930
H      0.718652      2.540663    -3.183451
H      2.748431      1.255117    -2.850128
C      1.861015     -0.700997    -3.341975
C      0.754031     -1.387156    -3.625611
H      2.803836     -1.218472    -3.188491
H      0.789811     -2.471621    -3.701648
C     -0.557295     -0.709019    -3.881453
C     -1.706020     -0.714863    -2.813218
H     -0.949560     -1.086158    -4.831569
H     -2.590840     -1.240100    -3.185552
C     -1.926874      1.728909    -1.734721
H     -1.564194      2.724139    -2.016352
H     -2.991243      1.852489    -1.506102
C     -1.251470      1.302242    -0.443115
C     -0.200910      2.051849     0.086717
H     -1.923990      0.816793     0.255993
H      0.278547      2.791984    -0.550491
C      0.394196      1.755882     1.308384
C     -0.105884      0.763068     2.138157
H      1.338282      2.234072     1.550915
H     -1.171085      0.554998     2.109988
C      0.571781      0.302443     3.359771
C     -0.181783     -0.263194     4.393238
C      1.959552      0.390270     3.523539
C      0.421816     -0.683642     5.568857
H     -1.254504     -0.374727     4.266075
C      2.563882     -0.032763     4.698175
H      2.574599      0.791232     2.723693
C      1.797173     -0.564513     5.729455
H     -0.183673     -1.107600     6.363915
H      3.640665      0.048163     4.809476
H      2.270452     -0.892364     6.649375
C     -1.421996     -1.259110    -1.416713
H     -2.345472     -1.254709    -0.832859
H     -1.137813     -2.314822    -1.512659
C     -0.323183     -0.557163    -0.643196
C      0.075350     -1.001864     0.624386
H      0.492596     -0.193238    -1.249110
H      1.135074     -0.990008     0.855043
C     -0.789969     -1.869962     1.437065
O     -1.996998     -1.808916     1.457189
O     -0.162595     -2.761074     2.249981
H      0.794485     -2.697529     2.151793
