49
 -1042.03247581 -1041.66628500  0.00 0.00
C     -2.159592     -0.465368    -1.988515
C     -3.337072     -1.476395    -2.085586
H     -1.842988     -0.021221    -2.936801
H     -4.296078     -1.089353    -1.720656
C     -3.526368     -2.095182    -3.439880
C     -3.370268     -3.401909    -3.660195
H     -3.819362     -1.436799    -4.255030
H     -3.543207     -3.811120    -4.651829
C     -2.979424     -4.328853    -2.586670
C     -2.620849     -3.875586    -1.384936
H     -2.986457     -5.394274    -2.798073
H     -2.326358     -4.567494    -0.599569
C     -2.569227     -2.406137    -1.106011
C     -1.272387     -1.633201    -1.483024
H     -2.847818     -2.198783    -0.068119
H     -0.844878     -2.136459    -2.356113
C     -2.425893      0.617251    -0.943414
H     -3.080062      0.209500    -0.163850
H     -2.991155      1.438254    -1.403315
C     -1.189113      1.167865    -0.270585
C     -0.055315      1.573592    -0.971780
H     -1.400313      1.678433     0.664177
H      0.013394      1.362615    -2.036429
C      1.094726      2.010279    -0.320977
C      1.151386      2.145492     1.056501
H      2.007045      2.098840    -0.901258
H      0.233487      2.352851     1.596237
C      2.369559      2.499887     1.802730
C      2.247729      3.069328     3.073645
C      3.656836      2.279696     1.297765
C      3.367022      3.441789     3.804622
H      1.256552      3.231558     3.489013
C      4.775405      2.645566     2.030009
H      3.786430      1.798355     0.334653
C      4.637408      3.234378     3.283114
H      3.246630      3.894346     4.783942
H      5.765531      2.467377     1.621963
H      5.516220      3.522420     3.851054
C     -0.148969     -1.413726    -0.476920
H      0.735668     -1.044192    -0.997322
H      0.138721     -2.389994    -0.065817
C     -0.438289     -0.491517     0.686973
C      0.563301     -0.093491     1.579488
H     -1.410524     -0.630064     1.158058
H      0.271415      0.179013     2.587500
C      1.966473     -0.498490     1.441075
O      2.561859     -0.772535     0.421369
O      2.595111     -0.522162     2.645937
H      3.524053     -0.724380     2.462849
49
 -1042.03021487 -1041.66439500  1.42 1.19
C     -0.706734     -3.033109     0.142218
C     -2.207842     -2.653213    -0.018283
H     -0.640265     -4.117101     0.274434
H     -2.326333     -1.788991    -0.676419
C     -3.148499     -3.736536    -0.449436
C     -3.805969     -4.485057     0.435550
H     -3.266602     -3.916139    -1.515860
H     -4.469146     -5.278583     0.103272
C     -3.652085     -4.265221     1.881692
C     -2.932148     -3.251509     2.363551
H     -4.151555     -4.950526     2.560946
H     -2.832814     -3.116953     3.438662
C     -2.235103     -2.256397     1.483158
C     -0.678429     -2.339910     1.531667
H     -2.629446     -1.254486     1.688113
H     -0.308793     -2.987308     2.332164
C      0.311166     -2.620229    -0.919337
H     -0.001528     -3.050382    -1.879847
H      1.260618     -3.104339    -0.663917
C      0.577083     -1.139227    -1.115198
C      1.891425     -0.684627    -1.037233
H     -0.102656     -0.626995    -1.789195
H      2.649451     -1.382872    -0.688935
C      2.266728      0.645808    -1.164008
C      1.333095      1.646253    -1.385239
H      3.285499      0.911701    -0.904301
H      0.425539      1.387668    -1.922364
C      1.655636      3.083306    -1.416529
C      2.785774      3.616195    -0.785412
C      0.801716      3.960867    -2.090218
C      3.064772      4.971954    -0.858362
H      3.447362      2.967470    -0.220757
C      1.082453      5.318483    -2.167877
H     -0.089919      3.567594    -2.571658
C      2.218779      5.829466    -1.554525
H      3.947617      5.365678    -0.364275
H      0.411936      5.978382    -2.709434
H      2.442078      6.890001    -1.611850
C      0.061992     -1.005867     1.607118
H      1.141858     -1.170639     1.612894
H     -0.168855     -0.530485     2.567945
C     -0.310058     -0.051400     0.495113
C      0.074822      1.291023     0.467731
H     -1.302336     -0.201960     0.080263
H     -0.633945      2.020264     0.093290
C      1.068286      1.817217     1.412586
O      2.019004      1.221993     1.867883
O      0.826634      3.114495     1.730128
H      1.549736      3.394242     2.310090
49
 -1042.02779243 -1041.66147600  2.94 3.02
C     -0.524623     -2.241843     1.845115
C     -1.812397     -3.014831     2.248854
H      0.295178     -2.286070     2.568132
H     -1.965865     -3.953214     1.702460
C     -1.965243     -3.258877     3.722004
C     -2.958669     -2.729084     4.438258
H     -1.236433     -3.910161     4.199953
H     -3.045509     -2.953808     5.497816
C     -3.968166     -1.847259     3.832093
C     -3.843169     -1.423328     2.573895
H     -4.818786     -1.546032     4.436715
H     -4.590718     -0.766381     2.135870
C     -2.649723     -1.802825     1.754319
C     -1.363817     -0.937726     1.888032
H     -2.923997     -1.918860     0.701182
H     -1.343708     -0.557022     2.914291
C     -0.039896     -2.636228     0.449792
H     -0.899659     -2.955725    -0.150726
H      0.610108     -3.517674     0.525642
C      0.675532     -1.542244    -0.308229
C      1.691936     -0.766541     0.243283
H      0.709214     -1.711661    -1.380286
H      1.910058     -0.854638     1.305248
C      2.267723      0.292922    -0.451746
C      1.917677      0.591875    -1.758966
H      2.896102      0.981986     0.103220
H      1.567644     -0.215435    -2.393322
C      2.410099      1.758243    -2.508411
C      2.946717      2.891737    -1.886440
C      2.334283      1.749273    -3.904225
C      3.418145      3.957135    -2.637052
H      2.992549      2.945533    -0.804135
C      2.808344      2.813359    -4.657868
H      1.902648      0.886807    -4.405111
C      3.356946      3.922316    -4.026152
H      3.835377      4.824435    -2.134875
H      2.749087      2.776312    -5.741126
H      3.729657      4.757237    -4.610779
C     -1.080135      0.233348     0.953223
H     -0.232695      0.796010     1.346842
H     -1.939598      0.915477     0.989884
C     -0.810145     -0.103555    -0.496507
C     -0.403934      0.846561    -1.437806
H     -1.450031     -0.880075    -0.912951
H     -0.622915      0.635436    -2.478884
C     -0.284054      2.297460    -1.218739
O     -0.552998      3.115187    -2.067713
O      0.153042      2.687552     0.008714
H      0.148818      3.654892    -0.012793
49
 -1042.02606980 -1041.66014600  4.02 3.85
C     -0.886666     -1.763401     2.374864
C     -2.061825     -2.289426     1.500017
H     -0.975046     -2.208582     3.370371
H     -1.763647     -2.376321     0.452287
C     -2.725021     -3.561186     1.932855
C     -3.796093     -3.556930     2.725709
H     -2.292328     -4.501860     1.599206
H     -4.251051     -4.490484     3.044135
C     -4.390246     -2.296307     3.195633
C     -3.947201     -1.112059     2.772100
H     -5.216413     -2.349356     3.899286
H     -4.403923     -0.195944     3.140808
C     -2.825750     -0.967326     1.785794
C     -1.525631     -0.347518     2.383899
H     -3.193634     -0.445750     0.894728
H     -1.668754      0.056538     3.390300
C      0.558492     -1.929399     1.907029
H      0.753140     -3.001539     1.771734
H      1.205741     -1.603990     2.729498
C      0.989955     -1.196781     0.651031
C      2.116805     -0.380104     0.707563
H      0.772086     -1.703058    -0.284319
H      2.560540     -0.194087     1.683733
C      2.584825      0.377399    -0.357050
C      1.949510      0.373429    -1.590115
H      3.360246      1.109275    -0.157078
H      1.423578     -0.530058    -1.883797
C      2.330447      1.234157    -2.722015
C      3.013845      2.443710    -2.555114
C      1.987072      0.846322    -4.020185
C      3.369534      3.215118    -3.649921
H      3.260030      2.794701    -1.558539
C      2.346445      1.615193    -5.118799
H      1.439756     -0.080830    -4.169059
C      3.043882      2.802551    -4.937748
H      3.902058      4.148826    -3.498598
H      2.081343      1.285663    -6.118539
H      3.326954      3.407443    -5.793222
C     -0.830252      0.712963     1.530884
H      0.083831      1.045475     2.028667
H     -1.479381      1.595080     1.468634
C     -0.520240      0.238079     0.128683
C     -0.090687      1.061249    -0.913478
H     -1.165677     -0.559798    -0.225777
H     -0.461353      0.840862    -1.907753
C      0.223132      2.492925    -0.763000
O     -0.055604      3.330594    -1.587638
O      0.869082      2.826584     0.385108
H      0.974096      3.787954     0.357185
49
 -1042.02370119 -1041.65767400  5.51 5.40
C     -1.610570     -1.755373     1.362366
C     -3.109093     -2.167792     1.321589
H     -1.320729     -1.588309     2.403636
H     -3.309382     -2.764571     0.425989
C     -3.700993     -2.825124     2.529447
C     -4.220072     -2.098664     3.520041
H     -3.671879     -3.910033     2.598588
H     -4.622859     -2.579553     4.406888
C     -4.254959     -0.630203     3.447274
C     -3.902302      0.027159     2.340625
H     -4.586967     -0.081735     4.324568
H     -3.935138      1.114387     2.317953
C     -3.462429     -0.673018     1.087802
C     -1.980285     -0.405856     0.698162
H     -4.184014     -0.480484     0.284415
H     -1.528464      0.476339     1.153732
C     -0.561066     -2.589929     0.636930
H     -1.011526     -3.079508    -0.234451
H     -0.191503     -3.396808     1.282371
C      0.582946     -1.714596     0.173784
C      1.096458     -0.709246     0.988942
H      1.252122     -2.167073    -0.551959
H      0.627770     -0.521260     1.950238
C      2.015062      0.231316     0.543051
C      2.494637      0.231649    -0.758008
H      2.220688      1.082514     1.184137
H      2.559068     -0.719549    -1.277404
C      3.355584      1.282422    -1.323564
C      4.165162      0.985056    -2.423766
C      3.388295      2.585713    -0.814918
C      5.008484      1.940231    -2.974522
H      4.141306     -0.016912    -2.844525
C      4.226065      3.541885    -1.365909
H      2.740979      2.861976     0.010753
C      5.045449      3.223343    -2.444021
H      5.638739      1.681180    -3.819554
H      4.237746      4.546473    -0.954774
H      5.702850      3.973867    -2.871030
C     -1.767408     -0.388051    -0.816345
H     -2.144326      0.562260    -1.203931
H     -2.402379     -1.165525    -1.259827
C     -0.364955     -0.632407    -1.380331
C      0.483314      0.366846    -1.856595
H     -0.317577     -1.535471    -1.985335
H      1.044302      0.168200    -2.761779
C      0.257637      1.808697    -1.661000
O      0.499073      2.649836    -2.493242
O     -0.245791      2.148799    -0.443964
H     -0.377076      3.106895    -0.472529
