49
 -1042.02784626 -1041.66082600  0.00 0.00
C      0.331404     -0.380360    -2.799626
C     -0.264843     -0.825032    -4.164460
H      0.522149      0.697212    -2.860953
H     -0.143388     -1.904762    -4.296521
C      0.149122     -0.078177    -5.392652
C     -0.478172      1.041728    -5.754291
H      0.995834     -0.445870    -5.967136
H     -0.156022      1.599097    -6.629285
C     -1.620425      1.555943    -4.982046
C     -2.163153      0.864809    -3.978019
H     -2.031096      2.522645    -5.261071
H     -3.019543      1.269858    -3.443792
C     -1.673900     -0.497305    -3.575427
C     -1.037399     -0.613774    -2.162200
H     -2.456094     -1.237404    -3.779071
H     -1.099970     -1.665672    -1.864210
C      1.472052     -1.091029    -2.077645
H      2.445624     -0.727736    -2.420198
H      1.423248     -2.161406    -2.310785
C      1.336255     -0.907334    -0.571457
C      0.756430     -1.908061     0.208974
H      2.061421     -0.244433    -0.112844
H      0.320084     -2.767590    -0.295817
C      0.536348     -1.779455     1.572407
C      0.958670     -0.648634     2.268339
H     -0.087339     -2.516733     2.068955
H      1.868541     -0.164490     1.924602
C      0.669695     -0.432229     3.699022
C      1.587584      0.263395     4.490896
C     -0.506942     -0.891545     4.299083
C      1.358407      0.459840     5.845619
H      2.496864      0.647482     4.036418
C     -0.738617     -0.693497     5.652720
H     -1.249976     -1.410996     3.701454
C      0.195495     -0.021742     6.433707
H      2.091847      0.990318     6.445117
H     -1.656108     -1.061607     6.101287
H      0.014652      0.130041     7.493038
C     -1.354038      0.264314    -0.957121
H     -2.057443     -0.234138    -0.283420
H     -1.831010      1.196252    -1.284541
C     -0.111930      0.680560    -0.187915
C     -0.188146      0.885470     1.190807
H      0.561941      1.351735    -0.711925
H     -1.107904      0.647141     1.711636
C      0.605881      1.997334     1.745040
O      1.689118      2.357684     1.339530
O     -0.006522      2.597174     2.790644
H      0.591317      3.290982     3.105136
49
 -1042.02508288 -1041.65832100  1.73 1.57
C     -0.156116      0.639427    -2.731137
C     -0.965663      0.634384    -4.057960
H     -0.022435      1.686042    -2.434264
H     -0.827858     -0.316868    -4.581582
C     -0.803708      1.794423    -4.988460
C     -1.527130      2.903346    -4.828894
H     -0.058334      1.731125    -5.777482
H     -1.385878      3.756166    -5.486775
C     -2.533811      3.006458    -3.760503
C     -2.864277      1.962595    -2.997940
H     -3.023527      3.965134    -3.611713
H     -3.627746      2.073382    -2.231333
C     -2.260494      0.599842    -3.185186
C     -1.381148      0.066750    -2.019571
H     -3.037448     -0.097677    -3.518131
H     -1.348749     -1.023834    -2.111615
C      1.122042     -0.158556    -2.490341
H      2.004095      0.396581    -2.823675
H      1.076217     -1.081865    -3.080278
C      1.244833     -0.520977    -1.016179
C      0.846730     -1.779384    -0.566039
H      2.014353      0.007922    -0.464983
H      0.362989     -2.450135    -1.273318
C      0.857835     -2.152933     0.769479
C      1.343354     -1.302231     1.761931
H      0.352966     -3.072025     1.051624
H      2.172965     -0.653096     1.497122
C      1.272340     -1.633195     3.197971
C      2.274698     -1.187792     4.063208
C      0.216811     -2.374919     3.738190
C      2.248166     -1.503828     5.413904
H      3.088617     -0.585623     3.668726
C      0.186810     -2.690759     5.088875
H     -0.591211     -2.710365     3.095162
C      1.205564     -2.261413     5.932297
H      3.045538     -1.157863     6.064271
H     -0.638966     -3.271650     5.487768
H      1.183140     -2.510885     6.988330
C     -1.517283      0.436666    -0.546816
H     -2.063440     -0.335999     0.002055
H     -2.088081      1.367506    -0.441542
C     -0.178015      0.691892     0.123691
C     -0.021199      0.394524     1.479048
H      0.355712      1.567150    -0.232013
H     -0.828771     -0.103822     2.001566
C      0.745310      1.318761     2.332870
O      0.485209      1.587715     3.478498
O      1.818315      1.870912     1.694531
H      2.226679      2.478993     2.326610
49
 -1042.02145819 -1041.65540300  4.01 3.40
C     -1.334301     -1.211707     2.198616
C     -1.415747     -2.403296     3.192962
H     -1.102383     -0.314441     2.783609
H     -1.976111     -3.230950     2.746903
C     -1.874638     -2.126909     4.589670
C     -1.014028     -1.715345     5.521540
H     -2.931163     -2.233279     4.823246
H     -1.354700     -1.485505     6.527110
C      0.417411     -1.558807     5.217892
C      0.939336     -1.947216     4.053012
H      1.056696     -1.125732     5.982599
H      2.005924     -1.833001     3.873455
C      0.119026     -2.597075     2.975323
C     -0.035837     -1.801288     1.649555
H      0.451434     -3.632793     2.842097
H     -0.291728     -2.523251     0.867171
C     -2.370437     -0.901266     1.122440
H     -3.175068     -0.273083     1.515848
H     -2.825116     -1.841567     0.788650
C     -1.703901     -0.225642    -0.070981
C     -1.339219     -0.983971    -1.186432
H     -1.944329      0.822165    -0.211599
H     -1.450026     -2.065011    -1.132852
C     -0.667609     -0.458960    -2.279542
C     -0.386419      0.901803    -2.375024
H     -0.247127     -1.146442    -3.007396
H     -1.104545      1.594134    -1.944466
C      0.430191      1.473252    -3.463053
C      0.170808      2.769022    -3.919275
C      1.483156      0.763229    -4.051569
C      0.906569      3.320967    -4.957724
H     -0.616764      3.349500    -3.447601
C      2.220822      1.315588    -5.089043
H      1.727427     -0.233164    -3.695525
C      1.931322      2.594348    -5.551835
H      0.678959      4.323851    -5.305574
H      3.030347      0.747337    -5.536507
H      2.506698      3.025068    -6.364985
C      0.949165     -0.784009     1.085321
H      1.582677     -1.234768     0.315219
H      1.615475     -0.423161     1.878249
C      0.255401      0.448281     0.530075
C      0.828799      1.149425    -0.532293
H     -0.242897      1.075920     1.262382
H      1.706630      0.729016    -1.014177
C      0.672288      2.623071    -0.531043
O     -0.274119      3.196575    -0.053177
O      1.666111      3.336778    -1.114676
H      2.325536      2.752315    -1.506590
